<?xml version="1.0" encoding="UTF-8"?>

<!-- generated on 2022-05-24 20:12:04 by Eclipse SUMO netedit Version 1.10.0
<configuration xmlns:xsi="http://www.w3.org/2001/XMLSchema-instance" xsi:noNamespaceSchemaLocation="http://sumo.dlr.de/xsd/netconvertConfiguration.xsd">

    <input>
        <sumo-net-file value="6TL.net.xml"/>
    </input>

    <output>
        <output-file value="6TL.net.xml"/>
    </output>

    <processing>
        <geometry.min-radius.fix.railways value="false"/>
        <geometry.max-grade.fix value="false"/>
        <offset.disable-normalization value="true"/>
        <lefthand value="false"/>
    </processing>

    <junctions>
        <no-turnarounds value="true"/>
        <junctions.corner-detail value="5"/>
        <junctions.limit-turn-speed value="5.5"/>
        <rectangular-lane-cut value="false"/>
    </junctions>

    <pedestrian>
        <walkingareas value="false"/>
    </pedestrian>

    <report>
        <aggregate-warnings value="5"/>
    </report>

</configuration>
-->

<net version="1.9" junctionCornerDetail="5" limitTurnSpeed="5.50" xmlns:xsi="http://www.w3.org/2001/XMLSchema-instance" xsi:noNamespaceSchemaLocation="http://sumo.dlr.de/xsd/net_file.xsd">

    <location netOffset="0.00,0.00" convBoundary="-2600.00,-6600.00,1300.00,500.00" origBoundary="-10000000000.00,-10000000000.00,10000000000.00,10000000000.00" projParameter="!"/>

    <edge id=":J1_0" function="internal">
        <lane id=":J1_0_0" index="0" speed="6.51" length="9.03" shape="-1411.20,-383.20 -1411.55,-385.65 -1412.60,-387.40 -1414.35,-388.45 -1416.80,-388.80"/>
    </edge>
    <edge id=":J1_1" function="internal">
        <lane id=":J1_1_0" index="0" speed="60.00" length="33.60" shape="-1411.20,-383.20 -1411.20,-416.80"/>
        <lane id=":J1_1_1" index="1" speed="60.00" length="33.60" shape="-1408.00,-383.20 -1408.00,-416.80"/>
        <lane id=":J1_1_2" index="2" speed="60.00" length="33.60" shape="-1404.80,-383.20 -1404.80,-416.80"/>
    </edge>
    <edge id=":J1_4" function="internal">
        <lane id=":J1_4_0" index="0" speed="11.36" length="29.67" shape="-1401.60,-383.20 -1400.45,-391.25 -1397.00,-397.00 -1391.25,-400.45 -1383.20,-401.60"/>
    </edge>
    <edge id=":J1_5" function="internal">
        <lane id=":J1_5_0" index="0" speed="6.51" length="9.03" shape="-1383.20,-388.80 -1385.65,-388.45 -1387.40,-387.40 -1388.45,-385.65 -1388.80,-383.20"/>
    </edge>
    <edge id=":J1_6" function="internal">
        <lane id=":J1_6_0" index="0" speed="60.00" length="33.60" shape="-1383.20,-388.80 -1416.80,-388.80"/>
        <lane id=":J1_6_1" index="1" speed="60.00" length="33.60" shape="-1383.20,-392.00 -1416.80,-392.00"/>
        <lane id=":J1_6_2" index="2" speed="60.00" length="33.60" shape="-1383.20,-395.20 -1416.80,-395.20"/>
    </edge>
    <edge id=":J1_9" function="internal">
        <lane id=":J1_9_0" index="0" speed="11.36" length="29.67" shape="-1383.20,-398.40 -1391.25,-399.55 -1397.00,-403.00 -1400.45,-408.75 -1401.60,-416.80"/>
    </edge>
    <edge id=":J1_10" function="internal">
        <lane id=":J1_10_0" index="0" speed="6.51" length="9.03" shape="-1388.80,-416.80 -1388.45,-414.35 -1387.40,-412.60 -1385.65,-411.55 -1383.20,-411.20"/>
    </edge>
    <edge id=":J1_11" function="internal">
        <lane id=":J1_11_0" index="0" speed="60.00" length="33.60" shape="-1388.80,-416.80 -1388.80,-383.20"/>
        <lane id=":J1_11_1" index="1" speed="60.00" length="33.60" shape="-1392.00,-416.80 -1392.00,-383.20"/>
        <lane id=":J1_11_2" index="2" speed="60.00" length="33.60" shape="-1395.20,-416.80 -1395.20,-383.20"/>
    </edge>
    <edge id=":J1_14" function="internal">
        <lane id=":J1_14_0" index="0" speed="11.36" length="29.67" shape="-1398.40,-416.80 -1399.55,-408.75 -1403.00,-403.00 -1408.75,-399.55 -1416.80,-398.40"/>
    </edge>
    <edge id=":J1_15" function="internal">
        <lane id=":J1_15_0" index="0" speed="6.51" length="9.03" shape="-1416.80,-411.20 -1414.35,-411.55 -1412.60,-412.60 -1411.55,-414.35 -1411.20,-416.80"/>
    </edge>
    <edge id=":J1_16" function="internal">
        <lane id=":J1_16_0" index="0" speed="60.00" length="33.60" shape="-1416.80,-411.20 -1383.20,-411.20"/>
        <lane id=":J1_16_1" index="1" speed="60.00" length="33.60" shape="-1416.80,-408.00 -1383.20,-408.00"/>
        <lane id=":J1_16_2" index="2" speed="60.00" length="33.60" shape="-1416.80,-404.80 -1383.20,-404.80"/>
    </edge>
    <edge id=":J1_19" function="internal">
        <lane id=":J1_19_0" index="0" speed="11.36" length="29.67" shape="-1416.80,-401.60 -1408.75,-400.45 -1403.00,-397.00 -1399.55,-391.25 -1398.40,-383.20"/>
    </edge>
    <edge id=":J13_0" function="internal">
        <lane id=":J13_0_0" index="0" speed="6.51" length="9.03" shape="-1411.20,-2883.20 -1411.55,-2885.65 -1412.60,-2887.40 -1414.35,-2888.45 -1416.80,-2888.80"/>
    </edge>
    <edge id=":J13_1" function="internal">
        <lane id=":J13_1_0" index="0" speed="60.00" length="33.60" shape="-1411.20,-2883.20 -1411.20,-2916.80"/>
        <lane id=":J13_1_1" index="1" speed="60.00" length="33.60" shape="-1408.00,-2883.20 -1408.00,-2916.80"/>
        <lane id=":J13_1_2" index="2" speed="60.00" length="33.60" shape="-1404.80,-2883.20 -1404.80,-2916.80"/>
    </edge>
    <edge id=":J13_4" function="internal">
        <lane id=":J13_4_0" index="0" speed="11.36" length="29.67" shape="-1401.60,-2883.20 -1400.45,-2891.25 -1397.00,-2897.00 -1391.25,-2900.45 -1383.20,-2901.60"/>
    </edge>
    <edge id=":J13_5" function="internal">
        <lane id=":J13_5_0" index="0" speed="6.51" length="9.03" shape="-1383.20,-2888.80 -1385.65,-2888.45 -1387.40,-2887.40 -1388.45,-2885.65 -1388.80,-2883.20"/>
    </edge>
    <edge id=":J13_6" function="internal">
        <lane id=":J13_6_0" index="0" speed="60.00" length="33.60" shape="-1383.20,-2888.80 -1416.80,-2888.80"/>
        <lane id=":J13_6_1" index="1" speed="60.00" length="33.60" shape="-1383.20,-2892.00 -1416.80,-2892.00"/>
        <lane id=":J13_6_2" index="2" speed="60.00" length="33.60" shape="-1383.20,-2895.20 -1416.80,-2895.20"/>
    </edge>
    <edge id=":J13_9" function="internal">
        <lane id=":J13_9_0" index="0" speed="11.36" length="29.67" shape="-1383.20,-2898.40 -1391.25,-2899.55 -1397.00,-2903.00 -1400.45,-2908.75 -1401.60,-2916.80"/>
    </edge>
    <edge id=":J13_10" function="internal">
        <lane id=":J13_10_0" index="0" speed="6.51" length="9.03" shape="-1388.80,-2916.80 -1388.45,-2914.35 -1387.40,-2912.60 -1385.65,-2911.55 -1383.20,-2911.20"/>
    </edge>
    <edge id=":J13_11" function="internal">
        <lane id=":J13_11_0" index="0" speed="60.00" length="33.60" shape="-1388.80,-2916.80 -1388.80,-2883.20"/>
        <lane id=":J13_11_1" index="1" speed="60.00" length="33.60" shape="-1392.00,-2916.80 -1392.00,-2883.20"/>
        <lane id=":J13_11_2" index="2" speed="60.00" length="33.60" shape="-1395.20,-2916.80 -1395.20,-2883.20"/>
    </edge>
    <edge id=":J13_14" function="internal">
        <lane id=":J13_14_0" index="0" speed="11.36" length="29.67" shape="-1398.40,-2916.80 -1399.55,-2908.75 -1403.00,-2903.00 -1408.75,-2899.55 -1416.80,-2898.40"/>
    </edge>
    <edge id=":J13_15" function="internal">
        <lane id=":J13_15_0" index="0" speed="6.51" length="9.03" shape="-1416.80,-2911.20 -1414.35,-2911.55 -1412.60,-2912.60 -1411.55,-2914.35 -1411.20,-2916.80"/>
    </edge>
    <edge id=":J13_16" function="internal">
        <lane id=":J13_16_0" index="0" speed="60.00" length="33.60" shape="-1416.80,-2911.20 -1383.20,-2911.20"/>
        <lane id=":J13_16_1" index="1" speed="60.00" length="33.60" shape="-1416.80,-2908.00 -1383.20,-2908.00"/>
        <lane id=":J13_16_2" index="2" speed="60.00" length="33.60" shape="-1416.80,-2904.80 -1383.20,-2904.80"/>
    </edge>
    <edge id=":J13_19" function="internal">
        <lane id=":J13_19_0" index="0" speed="11.36" length="29.67" shape="-1416.80,-2901.60 -1408.75,-2900.45 -1403.00,-2897.00 -1399.55,-2891.25 -1398.40,-2883.20"/>
    </edge>
    <edge id=":J14_0" function="internal">
        <lane id=":J14_0_0" index="0" speed="12.61" length="57.80" shape="-2570.76,-2888.80 -2586.16,-2892.57 -2594.96,-2902.21 -2596.07,-2915.21 -2588.40,-2929.08"/>
        <lane id=":J14_0_1" index="1" speed="11.77" length="50.09" shape="-2570.76,-2892.00 -2584.10,-2895.27 -2591.73,-2903.62 -2592.70,-2914.89 -2586.05,-2926.91"/>
        <lane id=":J14_0_2" index="2" speed="10.86" length="42.38" shape="-2570.76,-2895.20 -2582.05,-2897.96 -2588.51,-2905.03 -2589.32,-2914.57 -2583.70,-2924.74"/>
        <lane id=":J14_0_3" index="3" speed="9.86" length="34.68" shape="-2570.76,-2898.40 -2580.00,-2900.66 -2585.28,-2906.44 -2585.95,-2914.25 -2581.35,-2922.57"/>
    </edge>
    <edge id=":J14_4" function="internal">
        <lane id=":J14_4_0" index="0" speed="4.09" length="4.59" shape="-2571.94,-2913.89 -2572.80,-2912.71 -2572.89,-2911.87 -2572.21,-2911.37 -2570.76,-2911.20"/>
        <lane id=":J14_4_1" index="1" speed="6.43" length="13.78" shape="-2574.29,-2916.06 -2576.86,-2912.53 -2577.13,-2910.01 -2575.10,-2908.50 -2570.76,-2908.00"/>
        <lane id=":J14_4_2" index="2" speed="8.12" length="22.97" shape="-2576.64,-2918.23 -2580.92,-2912.35 -2581.37,-2908.16 -2577.98,-2905.64 -2570.76,-2904.80"/>
        <lane id=":J14_4_3" index="3" speed="9.51" length="32.16" shape="-2578.99,-2920.40 -2584.99,-2912.17 -2585.61,-2906.30 -2580.87,-2902.77 -2570.76,-2901.60"/>
    </edge>
    <edge id=":J15_0" function="internal">
        <lane id=":J15_0_0" index="0" speed="5.79" length="11.30" shape="-1411.20,-4161.06 -1411.54,-4165.19 -1412.57,-4167.29 -1414.29,-4167.37 -1416.69,-4165.41"/>
    </edge>
    <edge id=":J15_1" function="internal">
        <lane id=":J15_1_0" index="0" speed="60.00" length="47.95" shape="-1411.20,-4161.06 -1411.20,-4209.00"/>
        <lane id=":J15_1_1" index="1" speed="60.00" length="47.95" shape="-1408.00,-4161.06 -1408.00,-4209.00"/>
        <lane id=":J15_1_2" index="2" speed="60.00" length="47.95" shape="-1404.80,-4161.06 -1404.80,-4209.00"/>
    </edge>
    <edge id=":J15_4" function="internal">
        <lane id=":J15_4_0" index="0" speed="10.24" length="39.74" shape="-1401.60,-4161.06 -1398.73,-4171.42 -1391.62,-4177.13 -1382.51,-4177.36 -1373.62,-4171.30"/>
    </edge>
    <edge id=":J15_5" function="internal">
        <lane id=":J15_5_0" index="0" speed="5.46" length="10.04" shape="-1383.39,-4163.04 -1385.76,-4165.31 -1387.45,-4165.74 -1388.46,-4164.32 -1388.80,-4161.06"/>
    </edge>
    <edge id=":J15_6" function="internal">
        <lane id=":J15_6_0" index="0" speed="12.45" length="39.20" shape="-1383.39,-4163.04 -1391.84,-4170.71 -1400.20,-4173.66 -1408.49,-4171.89 -1416.69,-4165.41"/>
        <lane id=":J15_6_1" index="1" speed="13.29" length="44.84" shape="-1380.95,-4165.10 -1390.57,-4173.82 -1400.13,-4177.13 -1409.62,-4175.05 -1419.04,-4167.58"/>
        <lane id=":J15_6_2" index="2" speed="14.08" length="50.47" shape="-1378.51,-4167.17 -1389.31,-4176.93 -1400.05,-4180.61 -1410.75,-4178.21 -1421.39,-4169.75"/>
    </edge>
    <edge id=":J15_9" function="internal">
        <lane id=":J15_9_0" index="0" speed="24.76" length="48.76" shape="-1376.07,-4169.24 -1385.51,-4179.08 -1393.68,-4187.35 -1399.43,-4196.50 -1401.60,-4209.00"/>
    </edge>
    <edge id=":J15_10" function="internal">
        <lane id=":J15_10_0" index="0" speed="22.58" length="40.46" shape="-1388.80,-4209.00 -1387.04,-4197.99 -1382.24,-4191.54 -1375.09,-4185.94 -1366.29,-4177.51"/>
    </edge>
    <edge id=":J15_11" function="internal">
        <lane id=":J15_11_0" index="0" speed="60.00" length="47.95" shape="-1388.80,-4209.00 -1388.80,-4161.06"/>
        <lane id=":J15_11_1" index="1" speed="60.00" length="47.95" shape="-1392.00,-4209.00 -1392.00,-4161.06"/>
        <lane id=":J15_11_2" index="2" speed="60.00" length="47.95" shape="-1395.20,-4209.00 -1395.20,-4161.06"/>
    </edge>
    <edge id=":J15_14" function="internal">
        <lane id=":J15_14_0" index="0" speed="23.13" length="46.65" shape="-1398.40,-4209.00 -1400.45,-4196.84 -1405.98,-4188.47 -1414.06,-4181.10 -1423.74,-4171.92"/>
    </edge>
    <edge id=":J15_15" function="internal">
        <lane id=":J15_15_0" index="0" speed="20.81" length="37.70" shape="-1433.15,-4180.60 -1424.58,-4188.08 -1417.61,-4193.02 -1412.92,-4198.85 -1411.20,-4209.00"/>
    </edge>
    <edge id=":J15_16" function="internal">
        <lane id=":J15_16_0" index="0" speed="17.72" length="80.62" shape="-1433.15,-4180.60 -1415.44,-4195.64 -1399.27,-4199.94 -1383.33,-4193.81 -1366.29,-4177.51"/>
        <lane id=":J15_16_1" index="1" speed="17.08" length="74.85" shape="-1430.80,-4178.43 -1414.36,-4192.37 -1399.35,-4196.33 -1384.55,-4190.59 -1368.74,-4175.44"/>
        <lane id=":J15_16_2" index="2" speed="16.42" length="69.07" shape="-1428.45,-4176.26 -1413.28,-4189.10 -1399.43,-4192.71 -1385.77,-4187.37 -1371.18,-4173.37"/>
    </edge>
    <edge id=":J15_19" function="internal">
        <lane id=":J15_19_0" index="0" speed="10.44" length="40.61" shape="-1426.09,-4174.09 -1416.90,-4179.72 -1407.92,-4178.64 -1401.11,-4172.02 -1398.40,-4161.06"/>
    </edge>
    <edge id=":J2_0" function="internal">
        <lane id=":J2_0_0" index="0" speed="12.67" length="56.59" shape="-1372.00,491.56 -1386.00,498.49 -1398.60,497.04 -1407.70,488.20 -1411.20,472.99"/>
        <lane id=":J2_0_1" index="1" speed="11.82" length="49.05" shape="-1374.03,489.09 -1386.16,495.09 -1397.08,493.83 -1404.97,486.17 -1408.00,472.99"/>
        <lane id=":J2_0_2" index="2" speed="10.90" length="41.50" shape="-1376.06,486.61 -1386.32,491.69 -1395.56,490.62 -1402.23,484.15 -1404.80,472.99"/>
        <lane id=":J2_0_3" index="3" speed="9.90" length="33.95" shape="-1378.08,484.13 -1386.48,488.29 -1394.04,487.42 -1399.50,482.12 -1401.60,472.99"/>
    </edge>
    <edge id=":J2_4" function="internal">
        <lane id=":J2_4_0" index="0" speed="4.05" length="4.34" shape="-1388.80,472.99 -1388.64,474.33 -1388.15,474.99 -1387.33,474.95 -1386.19,474.23"/>
        <lane id=":J2_4_1" index="1" speed="6.35" length="13.02" shape="-1392.00,472.99 -1391.51,477.02 -1390.04,478.98 -1387.59,478.88 -1384.16,476.70"/>
        <lane id=":J2_4_2" index="2" speed="8.02" length="21.71" shape="-1395.20,472.99 -1394.38,479.71 -1391.93,482.98 -1387.85,482.80 -1382.13,479.18"/>
        <lane id=":J2_4_3" index="3" speed="9.39" length="30.39" shape="-1398.40,472.99 -1397.26,482.39 -1393.83,486.97 -1388.11,486.73 -1380.11,481.66"/>
    </edge>
    <edge id=":J3_0" function="internal">
        <lane id=":J3_0_0" index="0" speed="60.00" length="68.97" shape="-269.60,-408.80 -323.76,-366.09"/>
    </edge>
    <edge id=":J3_1" function="internal">
        <lane id=":J3_1_0" index="0" speed="32.69" length="73.87" shape="-269.60,-408.80 -284.52,-400.61 -303.23,-394.30 -322.69,-390.24 -339.86,-388.80"/>
        <lane id=":J3_1_1" index="1" speed="32.25" length="71.87" shape="-271.52,-411.36 -286.14,-403.27 -304.19,-397.18 -322.99,-393.34 -339.86,-392.00"/>
        <lane id=":J3_1_2" index="2" speed="31.80" length="69.86" shape="-273.44,-413.92 -287.76,-405.93 -305.15,-400.06 -323.29,-396.44 -339.86,-395.20"/>
    </edge>
    <edge id=":J3_4" function="internal">
        <lane id=":J3_4_0" index="0" speed="10.57" length="38.07" shape="-275.36,-416.48 -284.96,-412.11 -293.37,-413.26 -299.33,-419.30 -301.60,-429.60"/>
    </edge>
    <edge id=":J3_5" function="internal">
        <lane id=":J3_5_0" index="0" speed="5.56" length="9.40" shape="-288.80,-429.60 -288.44,-426.72 -287.36,-425.28 -285.56,-425.28 -283.04,-426.72"/>
    </edge>
    <edge id=":J3_6" function="internal">
        <lane id=":J3_6_0" index="0" speed="25.79" length="74.90" shape="-288.80,-429.60 -290.98,-412.54 -297.54,-396.27 -308.46,-380.79 -323.76,-366.09"/>
        <lane id=":J3_6_1" index="1" speed="25.31" length="72.07" shape="-292.00,-429.60 -294.11,-413.26 -300.45,-397.65 -311.00,-382.75 -325.78,-368.57"/>
        <lane id=":J3_6_2" index="2" speed="24.81" length="69.23" shape="-295.20,-429.60 -297.24,-413.99 -303.35,-399.02 -313.54,-384.71 -327.81,-371.05"/>
    </edge>
    <edge id=":J3_9" function="internal">
        <lane id=":J3_9_0" index="0" speed="15.86" length="58.82" shape="-298.40,-429.60 -300.99,-415.95 -308.76,-406.20 -321.72,-400.35 -339.86,-398.40"/>
    </edge>
    <edge id=":J3_10" function="internal">
        <lane id=":J3_10_0" index="0" speed="12.86" length="38.30" shape="-339.86,-411.20 -327.32,-412.35 -318.36,-415.80 -312.99,-421.55 -311.20,-429.60"/>
    </edge>
    <edge id=":J3_11" function="internal">
        <lane id=":J3_11_0" index="0" speed="29.44" length="61.86" shape="-339.86,-411.20 -324.79,-411.94 -309.95,-414.46 -295.86,-419.23 -283.04,-426.72"/>
        <lane id=":J3_11_1" index="1" speed="29.93" length="61.86" shape="-339.86,-408.00 -324.49,-408.84 -308.99,-411.58 -294.24,-416.57 -281.12,-424.16"/>
        <lane id=":J3_11_2" index="2" speed="30.41" length="61.86" shape="-339.86,-404.80 -324.19,-405.74 -308.03,-408.70 -292.62,-413.91 -279.20,-421.60"/>
    </edge>
    <edge id=":J3_14" function="internal">
        <lane id=":J3_14_0" index="0" speed="10.21" length="39.84" shape="-339.86,-401.60 -329.50,-398.69 -323.83,-391.49 -323.66,-382.33 -329.84,-373.52"/>
    </edge>
    <edge id=":J3_15" function="internal">
        <lane id=":J3_15_0" index="0" speed="5.46" length="10.12" shape="-337.94,-383.43 -335.60,-385.78 -335.14,-387.46 -336.56,-388.46 -339.86,-388.80"/>
    </edge>
    <edge id=":J3_16" function="internal">
        <lane id=":J3_16_0" index="0" speed="22.15" length="55.08" shape="-337.94,-383.43 -326.24,-394.52 -317.89,-405.91 -312.87,-417.60 -311.20,-429.60"/>
        <lane id=":J3_16_1" index="1" speed="22.70" length="57.91" shape="-335.91,-380.95 -323.70,-392.56 -314.98,-404.53 -309.74,-416.88 -308.00,-429.60"/>
        <lane id=":J3_16_2" index="2" speed="23.25" length="60.74" shape="-333.89,-378.48 -321.16,-390.60 -312.07,-403.16 -306.62,-416.16 -304.80,-429.60"/>
    </edge>
    <edge id=":J3_19" function="internal">
        <lane id=":J3_19_0" index="0" speed="60.00" length="69.51" shape="-331.86,-376.00 -277.28,-419.04"/>
    </edge>
    <edge id=":J4_0" function="internal">
        <lane id=":J4_0_0" index="0" speed="6.51" length="9.03" shape="-1411.20,-1583.20 -1411.55,-1585.65 -1412.60,-1587.40 -1414.35,-1588.45 -1416.80,-1588.80"/>
    </edge>
    <edge id=":J4_1" function="internal">
        <lane id=":J4_1_0" index="0" speed="60.00" length="33.60" shape="-1411.20,-1583.20 -1411.20,-1616.80"/>
        <lane id=":J4_1_1" index="1" speed="60.00" length="33.60" shape="-1408.00,-1583.20 -1408.00,-1616.80"/>
        <lane id=":J4_1_2" index="2" speed="60.00" length="33.60" shape="-1404.80,-1583.20 -1404.80,-1616.80"/>
    </edge>
    <edge id=":J4_4" function="internal">
        <lane id=":J4_4_0" index="0" speed="11.36" length="29.67" shape="-1401.60,-1583.20 -1400.45,-1591.25 -1397.00,-1597.00 -1391.25,-1600.45 -1383.20,-1601.60"/>
    </edge>
    <edge id=":J4_5" function="internal">
        <lane id=":J4_5_0" index="0" speed="6.51" length="9.03" shape="-1383.20,-1588.80 -1385.65,-1588.45 -1387.40,-1587.40 -1388.45,-1585.65 -1388.80,-1583.20"/>
    </edge>
    <edge id=":J4_6" function="internal">
        <lane id=":J4_6_0" index="0" speed="60.00" length="33.60" shape="-1383.20,-1588.80 -1416.80,-1588.80"/>
        <lane id=":J4_6_1" index="1" speed="60.00" length="33.60" shape="-1383.20,-1592.00 -1416.80,-1592.00"/>
        <lane id=":J4_6_2" index="2" speed="60.00" length="33.60" shape="-1383.20,-1595.20 -1416.80,-1595.20"/>
    </edge>
    <edge id=":J4_9" function="internal">
        <lane id=":J4_9_0" index="0" speed="11.36" length="29.67" shape="-1383.20,-1598.40 -1391.25,-1599.55 -1397.00,-1603.00 -1400.45,-1608.75 -1401.60,-1616.80"/>
    </edge>
    <edge id=":J4_10" function="internal">
        <lane id=":J4_10_0" index="0" speed="6.51" length="9.03" shape="-1388.80,-1616.80 -1388.45,-1614.35 -1387.40,-1612.60 -1385.65,-1611.55 -1383.20,-1611.20"/>
    </edge>
    <edge id=":J4_11" function="internal">
        <lane id=":J4_11_0" index="0" speed="60.00" length="33.60" shape="-1388.80,-1616.80 -1388.80,-1583.20"/>
        <lane id=":J4_11_1" index="1" speed="60.00" length="33.60" shape="-1392.00,-1616.80 -1392.00,-1583.20"/>
        <lane id=":J4_11_2" index="2" speed="60.00" length="33.60" shape="-1395.20,-1616.80 -1395.20,-1583.20"/>
    </edge>
    <edge id=":J4_14" function="internal">
        <lane id=":J4_14_0" index="0" speed="11.36" length="29.67" shape="-1398.40,-1616.80 -1399.55,-1608.75 -1403.00,-1603.00 -1408.75,-1599.55 -1416.80,-1598.40"/>
    </edge>
    <edge id=":J4_15" function="internal">
        <lane id=":J4_15_0" index="0" speed="6.51" length="9.03" shape="-1416.80,-1611.20 -1414.35,-1611.55 -1412.60,-1612.60 -1411.55,-1614.35 -1411.20,-1616.80"/>
    </edge>
    <edge id=":J4_16" function="internal">
        <lane id=":J4_16_0" index="0" speed="60.00" length="33.60" shape="-1416.80,-1611.20 -1383.20,-1611.20"/>
        <lane id=":J4_16_1" index="1" speed="60.00" length="33.60" shape="-1416.80,-1608.00 -1383.20,-1608.00"/>
        <lane id=":J4_16_2" index="2" speed="60.00" length="33.60" shape="-1416.80,-1604.80 -1383.20,-1604.80"/>
    </edge>
    <edge id=":J4_19" function="internal">
        <lane id=":J4_19_0" index="0" speed="11.36" length="29.67" shape="-1416.80,-1601.60 -1408.75,-1600.45 -1403.00,-1597.00 -1399.55,-1591.25 -1398.40,-1583.20"/>
    </edge>
    <edge id=":J5_0" function="internal">
        <lane id=":J5_0_0" index="0" speed="6.51" length="9.03" shape="-311.20,-1583.20 -311.55,-1585.65 -312.60,-1587.40 -314.35,-1588.45 -316.80,-1588.80"/>
    </edge>
    <edge id=":J5_1" function="internal">
        <lane id=":J5_1_0" index="0" speed="60.00" length="33.60" shape="-311.20,-1583.20 -311.20,-1616.80"/>
        <lane id=":J5_1_1" index="1" speed="60.00" length="33.60" shape="-308.00,-1583.20 -308.00,-1616.80"/>
        <lane id=":J5_1_2" index="2" speed="60.00" length="33.60" shape="-304.80,-1583.20 -304.80,-1616.80"/>
    </edge>
    <edge id=":J5_4" function="internal">
        <lane id=":J5_4_0" index="0" speed="11.36" length="29.67" shape="-301.60,-1583.20 -300.45,-1591.25 -297.00,-1597.00 -291.25,-1600.45 -283.20,-1601.60"/>
    </edge>
    <edge id=":J5_5" function="internal">
        <lane id=":J5_5_0" index="0" speed="6.51" length="9.03" shape="-283.20,-1588.80 -285.65,-1588.45 -287.40,-1587.40 -288.45,-1585.65 -288.80,-1583.20"/>
    </edge>
    <edge id=":J5_6" function="internal">
        <lane id=":J5_6_0" index="0" speed="60.00" length="33.60" shape="-283.20,-1588.80 -316.80,-1588.80"/>
        <lane id=":J5_6_1" index="1" speed="60.00" length="33.60" shape="-283.20,-1592.00 -316.80,-1592.00"/>
        <lane id=":J5_6_2" index="2" speed="60.00" length="33.60" shape="-283.20,-1595.20 -316.80,-1595.20"/>
    </edge>
    <edge id=":J5_9" function="internal">
        <lane id=":J5_9_0" index="0" speed="11.36" length="29.67" shape="-283.20,-1598.40 -291.25,-1599.55 -297.00,-1603.00 -300.45,-1608.75 -301.60,-1616.80"/>
    </edge>
    <edge id=":J5_10" function="internal">
        <lane id=":J5_10_0" index="0" speed="6.51" length="9.03" shape="-288.80,-1616.80 -288.45,-1614.35 -287.40,-1612.60 -285.65,-1611.55 -283.20,-1611.20"/>
    </edge>
    <edge id=":J5_11" function="internal">
        <lane id=":J5_11_0" index="0" speed="60.00" length="33.60" shape="-288.80,-1616.80 -288.80,-1583.20"/>
        <lane id=":J5_11_1" index="1" speed="60.00" length="33.60" shape="-292.00,-1616.80 -292.00,-1583.20"/>
        <lane id=":J5_11_2" index="2" speed="60.00" length="33.60" shape="-295.20,-1616.80 -295.20,-1583.20"/>
    </edge>
    <edge id=":J5_14" function="internal">
        <lane id=":J5_14_0" index="0" speed="11.36" length="29.67" shape="-298.40,-1616.80 -299.55,-1608.75 -303.00,-1603.00 -308.75,-1599.55 -316.80,-1598.40"/>
    </edge>
    <edge id=":J5_15" function="internal">
        <lane id=":J5_15_0" index="0" speed="6.51" length="9.03" shape="-316.80,-1611.20 -314.35,-1611.55 -312.60,-1612.60 -311.55,-1614.35 -311.20,-1616.80"/>
    </edge>
    <edge id=":J5_16" function="internal">
        <lane id=":J5_16_0" index="0" speed="60.00" length="33.60" shape="-316.80,-1611.20 -283.20,-1611.20"/>
        <lane id=":J5_16_1" index="1" speed="60.00" length="33.60" shape="-316.80,-1608.00 -283.20,-1608.00"/>
        <lane id=":J5_16_2" index="2" speed="60.00" length="33.60" shape="-316.80,-1604.80 -283.20,-1604.80"/>
    </edge>
    <edge id=":J5_19" function="internal">
        <lane id=":J5_19_0" index="0" speed="11.36" length="29.67" shape="-316.80,-1601.60 -308.75,-1600.45 -303.00,-1597.00 -299.55,-1591.25 -298.40,-1583.20"/>
    </edge>
    <edge id=":J6_0" function="internal">
        <lane id=":J6_0_0" index="0" speed="12.44" length="61.14" shape="1261.60,-1611.20 1277.37,-1606.58 1285.88,-1595.29 1285.85,-1581.15 1276.00,-1568.00"/>
        <lane id=":J6_0_1" index="1" speed="11.61" length="52.99" shape="1261.60,-1608.00 1275.27,-1604.00 1282.64,-1594.21 1282.61,-1581.96 1274.08,-1570.56"/>
        <lane id=":J6_0_2" index="2" speed="10.71" length="44.83" shape="1261.60,-1604.80 1273.16,-1601.42 1279.40,-1593.13 1279.38,-1582.77 1272.16,-1573.12"/>
        <lane id=":J6_0_3" index="3" speed="9.73" length="36.68" shape="1261.60,-1601.60 1271.06,-1598.83 1276.17,-1592.06 1276.15,-1583.57 1270.24,-1575.68"/>
    </edge>
    <edge id=":J6_4" function="internal">
        <lane id=":J6_4_0" index="0" speed="4.27" length="5.63" shape="1262.56,-1585.92 1263.94,-1587.18 1264.24,-1588.08 1263.46,-1588.62 1261.60,-1588.80"/>
        <lane id=":J6_4_1" index="1" speed="6.78" length="16.90" shape="1264.48,-1583.36 1268.62,-1587.14 1269.52,-1589.84 1267.18,-1591.46 1261.60,-1592.00"/>
        <lane id=":J6_4_2" index="2" speed="8.58" length="28.17" shape="1266.40,-1580.80 1273.30,-1587.10 1274.80,-1591.60 1270.90,-1594.30 1261.60,-1595.20"/>
        <lane id=":J6_4_3" index="3" speed="10.07" length="39.44" shape="1268.32,-1578.24 1277.98,-1587.06 1280.08,-1593.36 1274.62,-1597.14 1261.60,-1598.40"/>
    </edge>
    <edge id=":J7_0" function="internal">
        <lane id=":J7_0_0" index="0" speed="9.92" length="22.36" shape="-311.20,-2883.20 -312.47,-2885.65 -316.30,-2887.40 -322.67,-2888.45 -331.60,-2888.80"/>
    </edge>
    <edge id=":J7_1" function="internal">
        <lane id=":J7_1_0" index="0" speed="22.32" length="41.76" shape="-311.20,-2883.20 -312.25,-2894.45 -315.47,-2901.73 -321.00,-2908.17 -328.96,-2916.89"/>
        <lane id=":J7_1_1" index="1" speed="22.94" length="41.76" shape="-308.00,-2883.20 -309.08,-2895.08 -312.41,-2902.85 -318.17,-2909.74 -326.52,-2918.95"/>
        <lane id=":J7_1_2" index="2" speed="23.51" length="41.76" shape="-304.80,-2883.20 -305.99,-2895.40 -309.59,-2903.89 -315.61,-2911.48 -324.07,-2921.02"/>
    </edge>
    <edge id=":J7_4" function="internal">
        <lane id=":J7_4_0" index="0" speed="11.36" length="29.67" shape="-301.60,-2883.20 -300.45,-2891.25 -297.00,-2897.00 -291.25,-2900.45 -283.20,-2901.60"/>
    </edge>
    <edge id=":J7_5" function="internal">
        <lane id=":J7_5_0" index="0" speed="6.51" length="9.03" shape="-283.20,-2888.80 -285.65,-2888.45 -287.40,-2887.40 -288.45,-2885.65 -288.80,-2883.20"/>
    </edge>
    <edge id=":J7_6" function="internal">
        <lane id=":J7_6_0" index="0" speed="60.00" length="48.40" shape="-283.20,-2888.80 -331.60,-2888.80"/>
        <lane id=":J7_6_1" index="1" speed="60.00" length="48.40" shape="-283.20,-2892.00 -331.60,-2892.00"/>
        <lane id=":J7_6_2" index="2" speed="60.00" length="48.40" shape="-283.20,-2895.20 -331.60,-2895.20"/>
    </edge>
    <edge id=":J7_9" function="internal">
        <lane id=":J7_9_0" index="0" speed="20.74" length="46.96" shape="-283.20,-2898.40 -292.18,-2899.94 -301.58,-2904.57 -311.40,-2912.29 -321.63,-2923.09"/>
    </edge>
    <edge id=":J7_10" function="internal">
        <lane id=":J7_10_0" index="0" speed="18.16" length="35.90" shape="-311.86,-2931.36 -303.67,-2922.54 -296.17,-2916.24 -289.34,-2912.46 -283.20,-2911.20"/>
    </edge>
    <edge id=":J7_11" function="internal">
        <lane id=":J7_11_0" index="0" speed="26.20" length="52.48" shape="-311.86,-2931.36 -302.81,-2920.20 -295.49,-2909.05 -290.59,-2897.01 -288.80,-2883.20"/>
        <lane id=":J7_11_1" index="1" speed="25.68" length="52.48" shape="-314.30,-2929.29 -305.37,-2918.46 -298.31,-2908.02 -293.67,-2896.69 -292.00,-2883.20"/>
        <lane id=":J7_11_2" index="2" speed="25.16" length="52.48" shape="-316.75,-2927.22 -307.93,-2916.72 -301.13,-2906.99 -296.75,-2896.37 -295.20,-2883.20"/>
    </edge>
    <edge id=":J7_14" function="internal">
        <lane id=":J7_14_0" index="0" speed="10.48" length="38.56" shape="-319.19,-2925.16 -314.36,-2915.70 -315.28,-2907.09 -321.26,-2900.82 -331.60,-2898.40"/>
    </edge>
    <edge id=":J7_15" function="internal">
        <lane id=":J7_15_0" index="0" speed="5.52" length="9.52" shape="-331.60,-2911.20 -328.64,-2911.56 -327.21,-2912.62 -327.32,-2914.40 -328.96,-2916.89"/>
    </edge>
    <edge id=":J7_16" function="internal">
        <lane id=":J7_16_0" index="0" speed="60.00" length="48.40" shape="-331.60,-2911.20 -283.20,-2911.20"/>
        <lane id=":J7_16_1" index="1" speed="60.00" length="48.40" shape="-331.60,-2908.00 -283.20,-2908.00"/>
        <lane id=":J7_16_2" index="2" speed="60.00" length="48.40" shape="-331.60,-2904.80 -283.20,-2904.80"/>
    </edge>
    <edge id=":J7_19" function="internal">
        <lane id=":J7_19_0" index="0" speed="13.49" length="42.29" shape="-331.60,-2901.60 -317.07,-2900.45 -306.70,-2897.00 -300.47,-2891.25 -298.40,-2883.20"/>
    </edge>

    <edge id="-E0" from="J1" to="J0" priority="-1" length="1100.00">
        <lane id="-E0_0" index="0" speed="60.00" length="1100.00" shape="-1416.80,-388.80 -2500.00,-388.80"/>