<routes> 
       <Type accel="0.8" id="standard_car" decel="4.5" length="5.0" minGap="2.5" maxSpeed="60" sigma="0.5" />
                
       <route id="East_to_North" edges="right_in top_out" />
       <route id="East_to_West" edges="right_in left_out" />
       <route id="East_to_South" edges="right_in bottom_out" />
       <route id="North_to_East" edges="top_in right_out" />
       <route id="North_to_West" edges="top_in left_out" />
       <route id="North_to_South" edges="top_in bottom_out" />
       <route id="West_to_East" edges="left_in right_out" />
       <route id="West_to_North" edges="left_in top_out" />
       <route id="West_to_South" edges="left_in bottom_out" />
       <route id="South_to_East" edges="bottom_in right_out" />
       <route id="South_to_North" edges="bottom_in top_out" />
       <route id="South_to_West" edges="bottom_in left_out" />
if straight == 3
    <vehicle id="S_N_0" type="standard_car" route="South_to_North" depart="76.0" departLane="random" />
if straight == 2
    <vehicle id="N_S_1" type="standard_car" route="North_to_South" depart="104.0" departLane="random" />
if turn == 7
    <vehicle id="S_W_2" type="standard_car" route="South_to_West" depart="113.0" departLane="random" />
if turn == 1
    <vehicle id="E_S_3" type="standard_car" route="East_to_South" depart="117.0" departLane="random" />
if turn == 1
    <vehicle id="E_S_4" type="standard_car" route="East_to_South" depart="120.0" departLane="random" />
if straight == 1
    <vehicle id="W_E_5" type="standard_car" route="West_to_East" depart="129.0" departLane="random" />
if straight == 3
    <vehicle id="S_N_6" type="standard_car" route="South_to_North" depart="131.0" departLane="random" />
if straight == 2
    <vehicle id="N_S_7" type="standard_car" route="North_to_South" depart="144.0" departLane="random" />
if straight == 3
    <vehicle id="S_N_8" type="standard_car" route="South_to_North" depart="168.0" departLane="random" />
if straight == 1
    <vehicle id="W_E_9" type="standard_car" route="West_to_East" depart="173.0" departLane="random" />
if turn == 6
    <vehicle id="S_E_10" type="standard_car" route="South_to_East" depart="178.0" departLane="random" />
if turn == 1
    <vehicle id="E_S_11" type="standard_car" route="East_to_South" depart="184.0" departLane="random" />
if turn == 2
    <vehicle id="W_N_12" type="standard_car" route="West_to_North" depart="184.0" departLane="random" />
if straight == 2
    <vehicle id="N_S_13" type="standard_car" route="North_to_South" depart="193.0" departLane="random" />
if straight == 2
    <vehicle id="N_S_14" type="standard_car" route="North_to_South" depart="201.0" departLane="random" />
if straight == 3
    <vehicle id="S_N_15" type="standard_car" route="South_to_North" depart="206.0" departLane="random" />
if turn == 6
    <vehicle id="S_E_16" type="standard_car" route="South_to_East" depart="207.0" departLane="random" />
if straight == 2
    <vehicle id="N_S_17" type="standard_car" route="North_to_South" depart="210.0" departLane="random" />
if straight == 3
    <vehicle id="S_N_18" type="standard_car" route="South_to_North" depart="219.0" departLane="random" />
if straight == 0
    <vehicle id="E_W_19" type="standard_car" route="East_to_West" depart="220.0" departLane="random" />
if straight == 3
    <vehicle id="S_N_20" type="standard_car" route="South_to_North" depart="222.0" departLane="random" />
if turn == 6
    <vehicle id="S_E_21" type="standard_car" route="South_to_East" depart="230.0" departLane="random" />
if turn == 3
    <vehicle id="W_S_22" type="standard_car" route="West_to_South" depart="235.0" departLane="random" />
if turn == 1
    <vehicle id="E_S_23" type="standard_car" route="East_to_South" depart="247.0" departLane="random" />
if turn == 5
    <vehicle id="N_W_24" type="standard_car" route="North_to_West" depart="252.0" departLane="random" />
if straight == 2
    <vehicle id="N_S_25" type="standard_car" route="North_to_South" depart="254.0" departLane="random" />
if straight == 1
    <vehicle id="W_E_26" type="standard_car" route="West_to_East" depart="259.0" departLane="random" />
if turn == 3
    <vehicle id="W_S_27" type="standard_car" route="West_to_South" depart="261.0" departLane="random" />
if straight == 2
    <vehicle id="N_S_28" type="standard_car" route="North_to_South" depart="263.0" departLane="random" />
if straight == 1
    <vehicle id="W_E_29" type="standard_car" route="West_to_East" depart="265.0" departLane="random" />
if straight == 2
    <vehicle id="N_S_30" type="standard_car" route="North_to_South" depart="283.0" departLane="random" />
if straight == 2
    <vehicle id="N_S_31" type="standard_car" route="North_to_South" depart="285.0" departLane="random" />
if straight == 2
    <vehicle id="N_S_32" type="standard_car" route="North_to_South" depart="285.0" departLane="random" />
if straight == 2
    <vehicle id="N_S_33" type="standard_car" route="North_to_South" depart="286.0" departLane="random" />
if turn == 5
    <vehicle id="N_W_34" type="standard_car" route="North_to_West" depart="288.0" departLane="random" />
if turn == 4
    <vehicle id="N_E_35" type="standard_car" route="North_to_East" depart="289.0" departLane="random" />
if straight == 1
    <vehicle id="W_E_36" type="standard_car" route="West_to_East" depart="290.0" departLane="random" />
if straight == 3
    <vehicle id="S_N_37" type="standard_car" route="South_to_North" depart="298.0" departLane="random" />
if straight == 2
    <vehicle id="N_S_38" type="standard_car" route="North_to_South" depart="305.0" departLane="random" />
if turn == 2
    <vehicle id="W_N_39" type="standard_car" route="West_to_North" depart="309.0" departLane="random" />
if turn == 1
    <vehicle id="E_S_40" type="standard_car" route="East_to_South" depart="310.0" departLane="random" />
if turn == 0
    <vehicle id="E_N_41" type="standard_car" route="East_to_North" depart="312.0" departLane="random" />
if straight == 3
    <vehicle id="S_N_42" type="standard_car" route="South_to_North" depart="313.0" departLane="random" />
if turn == 1
    <vehicle id="E_S_43" type="standard_car" route="East_to_South" depart="318.0" departLane="random" />
if turn == 0
    <vehicle id="E_N_44" type="standard_car" route="East_to_North" depart="334.0" departLane="random" />
if straight == 2
    <vehicle id="N_S_45" type="standard_car" route="North_to_South" depart="350.0" departLane="random" />
if straight == 3
    <vehicle id="S_N_46" type="standard_car" route="South_to_North" depart="351.0" departLane="random" />
if straight == 1
    <vehicle id="W_E_47" type="standard_car" route="West_to_East" depart="351.0" departLane="random" />
if turn == 7
    <vehicle id="S_W_48" type="standard_car" route="South_to_West" depart="352.0" departLane="random" />
if turn == 0
    <vehicle id="E_N_49" type="standard_car" route="East_to_North" depart="356.0" departLane="random" />
if turn == 3
    <vehicle id="W_S_50" type="standard_car" route="West_to_South" depart="356.0" departLane="random" />
if turn == 1
    <vehicle id="E_S_51" type="standard_car" route="East_to_South" depart="360.0" departLane="random" />
if straight == 3
    <vehicle id="S_N_52" type="standard_car" route="South_to_North" depart="363.0" departLane="random" />
if straight == 1
    <vehicle id="W_E_53" type="standard_car" route="West_to_East" depart="372.0" departLane="random" />
if turn == 0
    <vehicle id="E_N_54" type="standard_car" route="East_to_North" depart="378.0" departLane="random" />
if straight == 2
    <vehicle id="N_S_55" type="standard_car" route="North_to_South" depart="386.0" departLane="random" />
if turn == 3
    <vehicle id="W_S_56" type="standard_car" route="West_to_South" depart="394.0" departLane="random" />
if turn == 5
    <vehicle id="N_W_57" type="standard_car" route="North_to_West" depart="394.0" departLane="random" />
if straight == 3
    <vehicle id="S_N_58" type="standard_car" route="South_to_North" depart="402.0" departLane="random" />
if straight == 1
    <vehicle id="W_E_59" type="standard_car" route="West_to_East" depart="404.0" departLane="random" />
if straight == 1
    <vehicle id="W_E_60" type="standard_car" route="West_to_East" depart="410.0" departLane="random" />
if turn == 7
    <vehicle id="S_W_61" type="standard_car" route="South_to_West" depart="426.0" departLane="random" />
if straight == 2
    <vehicle id="N_S_62" type="standard_car" route="North_to_South" depart="429.0" departLane="random" />
if straight == 0
    <vehicle id="E_W_63" type="standard_car" route="East_to_West" depart="431.0" departLane="random" />
if straight == 3
    <vehicle id="S_N_64" type="standard_car" route="South_to_North" depart="433.0" departLane="random" />
if straight == 3
    <vehicle id="S_N_65" type="standard_car" route="South_to_North" depart="435.0" departLane="random" />
if straight == 0
    <vehicle id="E_W_66" type="standard_car" route="East_to_West" depart="440.0" departLane="random" />
if turn == 1
    <vehicle id="E_S_67" type="standard_car" route="East_to_South" depart="443.0" departLane="random" />
if straight == 0
    <vehicle id="E_W_68" type="standard_car" route="East_to_West" depart="443.0" departLane="random" />
if straight == 0
    <vehicle id="E_W_69" type="standard_car" route="East_to_West" depart="448.0" departLane="random" />
if straight == 3
    <vehicle id="S_N_70" type="standard_car" route="South_to_North" depart="453.0" departLane="random" />
if straight == 0
    <vehicle id="E_W_71" type="standard_car" route="East_to_West" depart="464.0" departLane="random" />
if straight == 2
    <vehicle id="N_S_72" type="standard_car" route="North_to_South" depart="466.0" departLane="random" />
if straight == 2
    <vehicle id="N_S_73" type="standard_car" route="North_to_South" depart="467.0" departLane="random" />
if turn == 3
    <vehicle id="W_S_74" type="standard_car" route="West_to_South" depart="468.0" departLane="random" />
if straight == 1
    <vehicle id="W_E_75" type="standard_car" route="West_to_East" depart="477.0" departLane="random" />
if turn == 2
    <vehicle id="W_N_76" type="standard_car" route="West_to_North" depart="478.0" departLane="random" />
if straight == 0
    <vehicle id="E_W_77" type="standard_car" route="East_to_West" depart="481.0" departLane="random" />
if straight == 3
    <vehicle id="S_N_78" type="standard_car" route="South_to_North" depart="481.0" departLane="random" />
if straight == 3
    <vehicle id="S_N_79" type="standard_car" route="South_to_North" depart="483.0" departLane="random" />
if straight == 1
    <vehicle id="W_E_80" type="standard_car" route="West_to_East" depart="497.0" departLane="random" />
if straight == 3
    <vehicle id="S_N_81" type="standard_car" route="South_to_North" depart="498.0" departLane="random" />
if turn == 0
    <vehicle id="E_N_82" type="standard_car" route="East_to_North" depart="508.0" departLane="random" />
if straight == 2
    <vehicle id="N_S_83" type="standard_car" route="North_to_South" depart="510.0" departLane="random" />
if straight == 2
    <vehicle id="N_S_84" type="standard_car" route="North_to_South" depart="518.0" departLane="random" />
if straight == 3
    <vehicle id="S_N_85" type="standard_car" route="South_to_North" depart="521.0" departLane="random" />
if turn == 4
    <vehicle id="N_E_86" type="standard_car" route="North_to_East" depart="521.0" departLane="random" />
if turn == 3
    <vehicle id="W_S_87" type="standard_car" route="West_to_South" depart="523.0" departLane="random" />
if turn == 3
    <vehicle id="W_S_88" type="standard_car" route="West_to_South" depart="526.0" departLane="random" />
if straight == 2
    <vehicle id="N_S_89" type="standard_car" route="North_to_South" depart="528.0" departLane="random" />
if straight == 2
    <vehicle id="N_S_90" type="standard_car" route="North_to_South" depart="529.0" departLane="random" />
if turn == 2
    <vehicle id="W_N_91" type="standard_car" route="West_to_North" depart="543.0" departLane="random" />
if straight == 1
    <vehicle id="W_E_92" type="standard_car" route="West_to_East" depart="543.0" departLane="random" />
if turn == 1
    <vehicle id="E_S_93" type="standard_car" route="East_to_South" depart="545.0" departLane="random" />
if turn == 7
    <vehicle id="S_W_94" type="standard_car" route="South_to_West" depart="546.0" departLane="random" />
if straight == 1
    <vehicle id="W_E_95" type="standard_car" route="West_to_East" depart="547.0" departLane="random" />
if turn == 6
    <vehicle id="S_E_96" type="standard_car" route="South_to_East" depart="552.0" departLane="random" />
if straight == 2
    <vehicle id="N_S_97" type="standard_car" route="North_to_South" depart="553.0" departLane="random" />
if straight == 2
    <vehicle id="N_S_98" type="standard_car" route="North_to_South" depart="553.0" departLane="random" />
if straight == 0
    <vehicle id="E_W_99" type="standard_car" route="East_to_West" depart="554.0" departLane="random" />
if straight == 2
    <vehicle id="N_S_100" type="standard_car" route="North_to_South" depart="554.0" departLane="random" />
if straight == 0
    <vehicle id="E_W_101" type="standard_car" route="East_to_West" depart="556.0" departLane="random" />
if turn == 4
    <vehicle id="N_E_102" type="standard_car" route="North_to_East" depart="559.0" departLane="random" />
if straight == 2
    <vehicle id="N_S_103" type="standard_car" route="North_to_South" depart="562.0" departLane="random" />
if turn == 7
    <vehicle id="S_W_104" type="standard_car" route="South_to_West" depart="564.0" departLane="random" />
if turn == 4
    <vehicle id="N_E_105" type="standard_car" route="North_to_East" depart="564.0" departLane="random" />
if straight == 2
    <vehicle id="N_S_106" type="standard_car" route="North_to_South" depart="567.0" departLane="random" />
if straight == 3
    <vehicle id="S_N_107" type="standard_car" route="South_to_North" depart="568.0" departLane="random" />
if turn == 0
    <vehicle id="E_N_108" type="standard_car" route="East_to_North" depart="568.0" departLane="random" />
if turn == 6
    <vehicle id="S_E_109" type="standard_car" route="South_to_East" depart="569.0" departLane="random" />
if straight == 1
    <vehicle id="W_E_110" type="standard_car" route="West_to_East" depart="572.0" departLane="random" />
if straight == 3
    <vehicle id="S_N_111" type="standard_car" route="South_to_North" depart="576.0" departLane="random" />
if straight == 1
    <vehicle id="W_E_112" type="standard_car" route="West_to_East" depart="585.0" departLane="random" />
if turn == 3
    <vehicle id="W_S_113" type="standard_car" route="West_to_South" depart="597.0" departLane="random" />
if straight == 0
    <vehicle id="E_W_114" type="standard_car" route="East_to_West" depart="598.0" departLane="random" />
if turn == 0
    <vehicle id="E_N_115" type="standard_car" route="East_to_North" depart="599.0" departLane="random" />
if turn == 0
    <vehicle id="E_N_116" type="standard_car" route="East_to_North" depart="601.0" departLane="random" />
if straight == 3
    <vehicle id="S_N_117" type="standard_car" route="South_to_North" depart="605.0" departLane="random" />
if straight == 2
    <vehicle id="N_S_118" type="standard_car" route="North_to_South" depart="606.0" departLane="random" />
if turn == 6
    <vehicle id="S_E_119" type="standard_car" route="South_to_East" depart="607.0" departLane="random" />
if straight == 0
    <vehicle id="E_W_120" type="standard_car" route="East_to_West" depart="609.0" departLane="random" />
if turn == 2
    <vehicle id="W_N_121" type="standard_car" route="West_to_North" depart="619.0" departLane="random" />
if turn == 7
    <vehicle id="S_W_122" type="standard_car" route="South_to_West" depart="620.0" departLane="random" />
if straight == 3
    <vehicle id="S_N_123" type="standard_car" route="South_to_North" depart="622.0" departLane="random" />
if straight == 2
    <vehicle id="N_S_124" type="standard_car" route="North_to_South" depart="624.0" departLane="random" />
if straight == 0
    <vehicle id="E_W_125" type="standard_car" route="East_to_West" depart="624.0" departLane="random" />
if straight == 1
    <vehicle id="W_E_126" type="standard_car" route="West_to_East" depart="626.0" departLane="random" />
if turn == 0
    <vehicle id="E_N_127" type="standard_car" route="East_to_North" depart="626.0" departLane="random" />
if straight == 2
    <vehicle id="N_S_128" type="standard_car" route="North_to_South" depart="628.0" departLane="random" />
if straight == 0
    <vehicle id="E_W_129" type="standard_car" route="East_to_West" depart="628.0" departLane="random" />
if straight == 0
    <vehicle id="E_W_130" type="standard_car" route="East_to_West" depart="631.0" departLane="random" />
if turn == 6
    <vehicle id="S_E_131" type="standard_car" route="South_to_East" depart="634.0" departLane="random" />
if turn == 1
    <vehicle id="E_S_132" type="standard_car" route="East_to_South" depart="635.0" departLane="random" />
if straight == 0
    <vehicle id="E_W_133" type="standard_car" route="East_to_West" depart="636.0" departLane="random" />
if straight == 2
    <vehicle id="N_S_134" type="standard_car" route="North_to_South" depart="646.0" departLane="random" />
if turn == 3
    <vehicle id="W_S_135" type="standard_car" route="West_to_South" depart="650.0" departLane="random" />
if straight == 2
    <vehicle id="N_S_136" type="standard_car" route="North_to_South" depart="651.0" departLane="random" />
if straight == 0
    <vehicle id="E_W_137" type="standard_car" route="East_to_West" depart="653.0" departLane="random" />
if straight == 1
    <vehicle id="W_E_138" type="standard_car" route="West_to_East" depart="671.0" departLane="random" />
if straight == 0
    <vehicle id="E_W_139" type="standard_car" route="East_to_West" depart="672.0" departLane="random" />
if straight == 3
    <vehicle id="S_N_140" type="standard_car" route="South_to_North" depart="672.0" departLane="random" />
if straight == 0
    <vehicle id="E_W_141" type="standard_car" route="East_to_West" depart="676.0" departLane="random" />
if straight == 3
    <vehicle id="S_N_142" type="standard_car" route="South_to_North" depart="677.0" departLane="random" />
if turn == 5
    <vehicle id="N_W_143" type="standard_car" route="North_to_West" depart="678.0" departLane="random" />
if turn == 5
    <vehicle id="N_W_144" type="standard_car" route="North_to_West" depart="679.0" departLane="random" />
if turn == 0
    <vehicle id="E_N_145" type="standard_car" route="East_to_North" depart="687.0" departLane="random" />
if straight == 0
    <vehicle id="E_W_146" type="standard_car" route="East_to_West" depart="688.0" departLane="random" />
if straight == 1
    <vehicle id="W_E_147" type="standard_car" route="West_to_East" depart="691.0" departLane="random" />
if straight == 1
    <vehicle id="W_E_148" type="standard_car" route="West_to_East" depart="698.0" departLane="random" />
if straight == 0
    <vehicle id="E_W_149" type="standard_car" route="East_to_West" depart="700.0" departLane="random" />
if straight == 3
    <vehicle id="S_N_150" type="standard_car" route="South_to_North" depart="701.0" departLane="random" />
if turn == 3
    <vehicle id="W_S_151" type="standard_car" route="West_to_South" depart="702.0" departLane="random" />
if straight == 1
    <vehicle id="W_E_152" type="standard_car" route="West_to_East" depart="705.0" departLane="random" />
if turn == 1
    <vehicle id="E_S_153" type="standard_car" route="East_to_South" depart="708.0" departLane="random" />
if straight == 0
    <vehicle id="E_W_154" type="standard_car" route="East_to_West" depart="716.0" departLane="random" />
if straight == 3
    <vehicle id="S_N_155" type="standard_car" route="South_to_North" depart="716.0" departLane="random" />
if turn == 4
    <vehicle id="N_E_156" type="standard_car" route="North_to_East" depart="717.0" departLane="random" />
if straight == 1
    <vehicle id="W_E_157" type="standard_car" route="West_to_East" depart="719.0" departLane="random" />
if turn == 5
    <vehicle id="N_W_158" type="standard_car" route="North_to_West" depart="722.0" departLane="random" />
if straight == 3
    <vehicle id="S_N_159" type="standard_car" route="South_to_North" depart="728.0" departLane="random" />
if straight == 1
    <vehicle id="W_E_160" type="standard_car" route="West_to_East" depart="729.0" departLane="random" />
if straight == 3
    <vehicle id="S_N_161" type="standard_car" route="South_to_North" depart="730.0" departLane="random" />
if turn == 3
    <vehicle id="W_S_162" type="standard_car" route="West_to_South" depart="730.0" departLane="random" />
if straight == 3
    <vehicle id="S_N_163" type="standard_car" route="South_to_North" depart="733.0" departLane="random" />
if turn == 2
    <vehicle id="W_N_164" type="standard_car" route="West_to_North" depart="734.0" departLane="random" />
if straight == 1
    <vehicle id="W_E_165" type="standard_car" route="West_to_East" depart="738.0" departLane="random" />
if straight == 2
    <vehicle id="N_S_166" type="standard_car" route="North_to_South" depart="741.0" departLane="random" />
if straight == 1
    <vehicle id="W_E_167" type="standard_car" route="West_to_East" depart="743.0" departLane="random" />
if straight == 0
    <vehicle id="E_W_168" type="standard_car" route="East_to_West" depart="745.0" departLane="random" />
if straight == 1
    <vehicle id="W_E_169" type="standard_car" route="West_to_East" depart="746.0" departLane="random" />
if straight == 2
    <vehicle id="N_S_170" type="standard_car" route="North_to_South" depart="747.0" departLane="random" />
if turn == 3
    <vehicle id="W_S_171" type="standard_car" route="West_to_South" depart="750.0" departLane="random" />
if straight == 1
    <vehicle id="W_E_172" type="standard_car" route="West_to_East" depart="753.0" departLane="random" />
if straight == 1
    <vehicle id="W_E_173" type="standard_car" route="West_to_East" depart="754.0" departLane="random" />
if straight == 1
    <vehicle id="W_E_174" type="standard_car" route="West_to_East" depart="755.0" departLane="random" />
if turn == 0
    <vehicle id="E_N_175" type="standard_car" route="East_to_North" depart="755.0" departLane="random" />
if straight == 2
    <vehicle id="N_S_176" type="standard_car" route="North_to_South" depart="764.0" departLane="random" />
if straight == 1
    <vehicle id="W_E_177" type="standard_car" route="West_to_East" depart="765.0" departLane="random" />
if straight == 2
    <vehicle id="N_S_178" type="standard_car" route="North_to_South" depart="767.0" departLane="random" />
if turn == 2
    <vehicle id="W_N_179" type="standard_car" route="West_to_North" depart="771.0" departLane="random" />
if straight == 2
    <vehicle id="N_S_180" type="standard_car" route="North_to_South" depart="772.0" departLane="random" />
if turn == 6
    <vehicle id="S_E_181" type="standard_car" route="South_to_East" depart="775.0" departLane="random" />
if straight == 1
    <vehicle id="W_E_182" type="standard_car" route="West_to_East" depart="781.0" departLane="random" />
if turn == 4
    <vehicle id="N_E_183" type="standard_car" route="North_to_East" depart="784.0" departLane="random" />
if turn == 3
    <vehicle id="W_S_184" type="standard_car" route="West_to_South" depart="785.0" departLane="random" />
if turn == 2
    <vehicle id="W_N_185" type="standard_car" route="West_to_North" depart="787.0" departLane="random" />
if turn == 2
    <vehicle id="W_N_186" type="standard_car" route="West_to_North" depart="789.0" departLane="random" />
if turn == 6
    <vehicle id="S_E_187" type="standard_car" route="South_to_East" depart="791.0" departLane="random" />
if straight == 0
    <vehicle id="E_W_188" type="standard_car" route="East_to_West" depart="792.0" departLane="random" />
if turn == 5
    <vehicle id="N_W_189" type="standard_car" route="North_to_West" depart="793.0" departLane="random" />
if straight == 3
    <vehicle id="S_N_190" type="standard_car" route="South_to_North" depart="796.0" departLane="random" />
if turn == 1
    <vehicle id="E_S_191" type="standard_car" route="East_to_South" depart="796.0" departLane="random" />
if turn == 7
    <vehicle id="S_W_192" type="standard_car" route="South_to_West" depart="799.0" departLane="random" />
if straight == 3
    <vehicle id="S_N_193" type="standard_car" route="South_to_North" depart="806.0" departLane="random" />
if turn == 5
    <vehicle id="N_W_194" type="standard_car" route="North_to_West" depart="810.0" departLane="random" />
if straight == 0
    <vehicle id="E_W_195" type="standard_car" route="East_to_West" depart="812.0" departLane="random" />
if straight == 2
    <vehicle id="N_S_196" type="standard_car" route="North_to_South" depart="813.0" departLane="random" />
if turn == 5
    <vehicle id="N_W_197" type="standard_car" route="North_to_West" depart="813.0" departLane="random" />
if straight == 2
    <vehicle id="N_S_198" type="standard_car" route="North_to_South" depart="814.0" departLane="random" />
if straight == 3
    <vehicle id="S_N_199" type="standard_car" route="South_to_North" depart="816.0" departLane="random" />
if straight == 2
    <vehicle id="N_S_200" type="standard_car" route="North_to_South" depart="818.0" departLane="random" />
if straight == 3
    <vehicle id="S_N_201" type="standard_car" route="South_to_North" depart="820.0" departLane="random" />
if straight == 2
    <vehicle id="N_S_202" type="standard_car" route="North_to_South" depart="824.0" departLane="random" />
if straight == 1
    <vehicle id="W_E_203" type="standard_car" route="West_to_East" depart="824.0" departLane="random" />
if straight == 0
    <vehicle id="E_W_204" type="standard_car" route="East_to_West" depart="834.0" departLane="random" />
if turn == 6
    <vehicle id="S_E_205" type="standard_car" route="South_to_East" depart="837.0" departLane="random" />
if straight == 3
    <vehicle id="S_N_206" type="standard_car" route="South_to_North" depart="838.0" departLane="random" />
if turn == 5
    <vehicle id="N_W_207" type="standard_car" route="North_to_West" depart="840.0" departLane="random" />
if straight == 1
    <vehicle id="W_E_208" type="standard_car" route="West_to_East" depart="842.0" departLane="random" />
if turn == 3
    <vehicle id="W_S_209" type="standard_car" route="West_to_South" depart="846.0" departLane="random" />
if turn == 4
    <vehicle id="N_E_210" type="standard_car" route="North_to_East" depart="846.0" departLane="random" />
if straight == 0
    <vehicle id="E_W_211" type="standard_car" route="East_to_West" depart="847.0" departLane="random" />
if straight == 0
    <vehicle id="E_W_212" type="standard_car" route="East_to_West" depart="848.0" departLane="random" />
if straight == 0
    <vehicle id="E_W_213" type="standard_car" route="East_to_West" depart="848.0" departLane="random" />
if straight == 3
    <vehicle id="S_N_214" type="standard_car" route="South_to_North" depart="862.0" departLane="random" />
if straight == 2
    <vehicle id="N_S_215" type="standard_car" route="North_to_South" depart="863.0" departLane="random" />
if straight == 0
    <vehicle id="E_W_216" type="standard_car" route="East_to_West" depart="863.0" departLane="random" />
if straight == 1
    <vehicle id="W_E_217" type="standard_car" route="West_to_East" depart="864.0" departLane="random" />
if straight == 0
    <vehicle id="E_W_218" type="standard_car" route="East_to_West" depart="869.0" departLane="random" />
if straight == 3
    <vehicle id="S_N_219" type="standard_car" route="South_to_North" depart="874.0" departLane="random" />
if straight == 1
    <vehicle id="W_E_220" type="standard_car" route="West_to_East" depart="874.0" departLane="random" />
if straight == 3
    <vehicle id="S_N_221" type="standard_car" route="South_to_North" depart="878.0" departLane="random" />
if turn == 5
    <vehicle id="N_W_222" type="standard_car" route="North_to_West" depart="880.0" departLane="random" />
if turn == 3
    <vehicle id="W_S_223" type="standard_car" route="West_to_South" depart="881.0" departLane="random" />
if straight == 3
    <vehicle id="S_N_224" type="standard_car" route="South_to_North" depart="882.0" departLane="random" />
if turn == 7
    <vehicle id="S_W_225" type="standard_car" route="South_to_West" depart="886.0" departLane="random" />
if turn == 3
    <vehicle id="W_S_226" type="standard_car" route="West_to_South" depart="892.0" departLane="random" />
if turn == 5
    <vehicle id="N_W_227" type="standard_car" route="North_to_West" depart="894.0" departLane="random" />
if turn == 1
    <vehicle id="E_S_228" type="standard_car" route="East_to_South" depart="896.0" departLane="random" />
if straight == 1
    <vehicle id="W_E_229" type="standard_car" route="West_to_East" depart="898.0" departLane="random" />
if straight == 3
    <vehicle id="S_N_230" type="standard_car" route="South_to_North" depart="899.0" departLane="random" />
if straight == 1
    <vehicle id="W_E_231" type="standard_car" route="West_to_East" depart="900.0" departLane="random" />
if turn == 7
    <vehicle id="S_W_232" type="standard_car" route="South_to_West" depart="904.0" departLane="random" />
if straight == 3
    <vehicle id="S_N_233" type="standard_car" route="South_to_North" depart="908.0" departLane="random" />
if turn == 7
    <vehicle id="S_W_234" type="standard_car" route="South_to_West" depart="911.0" departLane="random" />
if turn == 4
    <vehicle id="N_E_235" type="standard_car" route="North_to_East" depart="912.0" departLane="random" />
if turn == 6
    <vehicle id="S_E_236" type="standard_car" route="South_to_East" depart="913.0" departLane="random" />
if straight == 0
    <vehicle id="E_W_237" type="standard_car" route="East_to_West" depart="914.0" departLane="random" />
if straight == 2
    <vehicle id="N_S_238" type="standard_car" route="North_to_South" depart="916.0" departLane="random" />
if straight == 3
    <vehicle id="S_N_239" type="standard_car" route="South_to_North" depart="917.0" departLane="random" />
if straight == 2