<routes>
    <vType accel="0.8" id="standard_car" decel="4.5" length="5.0" minGap="2.5" maxSpeed="60" sigma="0.5" />

    <route id="East_to_North" edges="right_in top_out"/>
    <route id="East_to_West" edges="right_in left_out"/>
    <route id="East_to_South" edges="right_in bottom_out"/>
    <route id="West_to_North" edges="left_in top_out"/>
    <route id="West_to_East" edges="left_in right_out"/>
    <route id="West_to_South" edges="left_in bottom_out"/>
    <route id="North_to_East" edges="top_in right_out"/>
    <route id="North_to_South" edges="top_in bottom_out"/>
    <route id="North_to_West" edges="top_in left_out"/>
    <route id="South_to_East" edges="bottom_in right_out"/>
    <route id="South_to_North" edges="bottom_in top_out"/>
    <route id="South_to_West" edges="bottom_in left_out"/>
           
