<routes>
    <vType accel="0.8" id="standard_car" decel="4.5" length="5.0" minGap="2.5" maxSpeed="16.67" sigma="0.5" />
    
    <route id="-E29_to_-E22" edges="-E29 -E22" />
    <route id="-E29_to_E31" edges="-E29 E31" />
    <route id="-E31_to_E29" edges="-E31 E29" />
    <route id="-E31_to_-E22" edges="-E31 -E22" />
    <route id="-E32_to_E31" edges="-E32 E31" />
    <route id="-E32_to_E33" edges="-E32 E33" />
    <route id="-E33_to_E32" edges="-E33 E32" />
    <route id="E22_to_E29" edges="E22 E29" />
    <vehicle id="-E33_to_E32_0" type="standard_car" route="-E33_to_E32" depart="42.0" departLane="allowed" />
    <vehicle id="-E32_to_E33_1" type="standard_car" route="-E32_to_E33" depart="67.0" departLane="allowed" />
    <vehicle id="-E29_to_E31_2" type="standard_car" route="-E29_to_E31" depart="94.0" departLane="allowed" />
    <vehicle id="-E33_to_E32_3" type="standard_car" route="-E33_to_E32" depart="112.0" departLane="allowed" />
    <vehicle id="-E33_to_E32_4" type="standard_car" route="-E33_to_E32" depart="123.0" departLane="allowed" />
    <vehicle id="-E33_to_E32_5" type="standard_car" route="-E33_to_E32" depart="129.0" departLane="allowed" />
    <vehicle id="-E32_to_E31_6" type="standard_car" route="-E32_to_E31" depart="160.0" departLane="allowed" />
    <vehicle id="-E32_to_E33_7" type="standard_car" route="-E32_to_E33" depart="193.0" departLane="allowed" />
    <vehicle id="-E29_to_-E22_8" type="standard_car" route="-E29_to_-E22" depart="195.0" departLane="allowed" />
    <vehicle id="E22_to_E29_9" type="standard_car" route="E22_to_E29" depart="198.0" departLane="allowed" />
    <vehicle id="-E29_to_-E22_10" type="standard_car" route="-E29_to_-E22" depart="199.0" departLane="allowed" />
    <vehicle id="-E31_to_-E22_11" type="standard_car" route="-E31_to_-E22" depart="208.0" departLane="allowed" />
    <vehicle id="E22_to_E29_12" type="standard_car" route="E22_to_E29" depart="226.0" departLane="allowed" />
    <vehicle id="-E29_to_-E22_13" type="standard_car" route="-E29_to_-E22" depart="231.0" departLane="allowed" />
    <vehicle id="-E33_to_E32_14" type="standard_car" route="-E33_to_E32" depart="232.0" departLane="allowed" />
    <vehicle id="-E33_to_E32_15" type="standard_car" route="-E33_to_E32" depart="235.0" departLane="allowed" />
    <vehicle id="-E29_to_E31_16" type="standard_car" route="-E29_to_E31" depart="246.0" departLane="allowed" />
    <vehicle id="-E32_to_E33_17" type="standard_car" route="-E32_to_E33" depart="248.0" departLane="allowed" />
    <vehicle id="-E32_to_E33_18" type="standard_car" route="-E32_to_E33" depart="250.0" departLane="allowed" />
    <vehicle id="-E33_to_E32_19" type="standard_car" route="-E33_to_E32" depart="251.0" departLane="allowed" />
    <vehicle id="-E29_to_-E22_20" type="standard_car" route="-E29_to_-E22" depart="257.0" departLane="allowed" />
    <vehicle id="-E33_to_E32_21" type="standard_car" route="-E33_to_E32" depart="257.0" departLane="allowed" />
    <vehicle id="-E29_to_E31_22" type="standard_car" route="-E29_to_E31" depart="260.0" departLane="allowed" />
    <vehicle id="E22_to_E29_23" type="standard_car" route="E22_to_E29" depart="282.0" departLane="allowed" />
    <vehicle id="-E33_to_E32_24" type="standard_car" route="-E33_to_E32" depart="285.0" departLane="allowed" />
    <vehicle id="-E32_to_E33_25" type="standard_car" route="-E32_to_E33" depart="290.0" departLane="allowed" />
    <vehicle id="-E32_to_E33_26" type="standard_car" route="-E32_to_E33" depart="309.0" departLane="allowed" />
    <vehicle id="-E32_to_E33_27" type="standard_car" route="-E32_to_E33" depart="310.0" departLane="allowed" />
    <vehicle id="-E32_to_E33_28" type="standard_car" route="-E32_to_E33" depart="314.0" departLane="allowed" />
    <vehicle id="-E33_to_E32_29" type="standard_car" route="-E33_to_E32" depart="315.0" departLane="allowed" />
    <vehicle id="E22_to_E29_30" type="standard_car" route="E22_to_E29" depart="324.0" departLane="allowed" />
    <vehicle id="-E29_to_-E22_31" type="standard_car" route="-E29_to_-E22" depart="330.0" departLane="allowed" />
    <vehicle id="-E32_to_E33_32" type="standard_car" route="-E32_to_E33" depart="331.0" departLane="allowed" />
    <vehicle id="E22_to_E29_33" type="standard_car" route="E22_to_E29" depart="342.0" departLane="allowed" />
    <vehicle id="-E33_to_E32_34" type="standard_car" route="-E33_to_E32" depart="345.0" departLane="allowed" />
    <vehicle id="-E29_to_-E22_35" type="standard_car" route="-E29_to_-E22" depart="357.0" departLane="allowed" />
    <vehicle id="-E31_to_-E22_36" type="standard_car" route="-E31_to_-E22" depart="360.0" departLane="allowed" />
    <vehicle id="-E29_to_-E22_37" type="standard_car" route="-E29_to_-E22" depart="362.0" departLane="allowed" />
    <vehicle id="-E31_to_E29_38" type="standard_car" route="-E31_to_E29" depart="364.0" departLane="allowed" />
    <vehicle id="E22_to_E29_39" type="standard_car" route="E22_to_E29" depart="377.0" departLane="allowed" />
    <vehicle id="-E29_to_E31_40" type="standard_car" route="-E29_to_E31" depart="385.0" departLane="allowed" />
    <vehicle id="E22_to_E29_41" type="standard_car" route="E22_to_E29" depart="391.0" departLane="allowed" />
    <vehicle id="-E33_to_E32_42" type="standard_car" route="-E33_to_E32" depart="394.0" departLane="allowed" />
    <vehicle id="-E31_to_E29_43" type="standard_car" route="-E31_to_E29" depart="402.0" departLane="allowed" />
    <vehicle id="-E32_to_E33_44" type="standard_car" route="-E32_to_E33" depart="405.0" departLane="allowed" />
    <vehicle id="-E32_to_E33_45" type="standard_car" route="-E32_to_E33" depart="422.0" departLane="allowed" />
    <vehicle id="-E29_to_-E22_46" type="standard_car" route="-E29_to_-E22" depart="425.0" departLane="allowed" />
    <vehicle id="-E29_to_E31_47" type="standard_car" route="-E29_to_E31" depart="430.0" departLane="allowed" />
    <vehicle id="-E29_to_-E22_48" type="standard_car" route="-E29_to_-E22" depart="435.0" departLane="allowed" />
    <vehicle id="-E31_to_-E22_49" type="standard_car" route="-E31_to_-E22" depart="436.0" departLane="allowed" />
    <vehicle id="-E33_to_E32_50" type="standard_car" route="-E33_to_E32" depart="440.0" departLane="allowed" />
    <vehicle id="-E31_to_-E22_51" type="standard_car" route="-E31_to_-E22" depart="441.0" departLane="allowed" />
    <vehicle id="-E33_to_E32_52" type="standard_car" route="-E33_to_E32" depart="442.0" departLane="allowed" />
    <vehicle id="E22_to_E29_53" type="standard_car" route="E22_to_E29" depart="445.0" departLane="allowed" />
    <vehicle id="-E31_to_-E22_54" type="standard_car" route="-E31_to_-E22" depart="448.0" departLane="allowed" />
    <vehicle id="-E29_to_-E22_55" type="standard_car" route="-E29_to_-E22" depart="449.0" departLane="allowed" />
    <vehicle id="-E31_to_-E22_56" type="standard_car" route="-E31_to_-E22" depart="452.0" departLane="allowed" />
    <vehicle id="-E29_to_E31_57" type="standard_car" route="-E29_to_E31" depart="458.0" departLane="allowed" />
    <vehicle id="-E29_to_E31_58" type="standard_car" route="-E29_to_E31" depart="458.0" departLane="allowed" />
    <vehicle id="-E33_to_E32_59" type="standard_car" route="-E33_to_E32" depart="460.0" departLane="allowed" />
    <vehicle id="E22_to_E29_60" type="standard_car" route="E22_to_E29" depart="461.0" departLane="allowed" />
    <vehicle id="-E31_to_E29_61" type="standard_car" route="-E31_to_E29" depart="463.0" departLane="allowed" />
    <vehicle id="-E31_to_-E22_62" type="standard_car" route="-E31_to_-E22" depart="463.0" departLane="allowed" />
    <vehicle id="E22_to_E29_63" type="standard_car" route="E22_to_E29" depart="468.0" departLane="allowed" />
    <vehicle id="E22_to_E29_64" type="standard_car" route="E22_to_E29" depart="469.0" departLane="allowed" />
    <vehicle id="-E29_to_E31_65" type="standard_car" route="-E29_to_E31" depart="471.0" departLane="allowed" />
    <vehicle id="-E32_to_E33_66" type="standard_car" route="-E32_to_E33" depart="475.0" departLane="allowed" />
    <vehicle id="-E29_to_-E22_67" type="standard_car" route="-E29_to_-E22" depart="478.0" departLane="allowed" />
    <vehicle id="-E33_to_E32_68" type="standard_car" route="-E33_to_E32" depart="481.0" departLane="allowed" />
    <vehicle id="-E29_to_E31_69" type="standard_car" route="-E29_to_E31" depart="482.0" departLane="allowed" />
    <vehicle id="-E31_to_-E22_70" type="standard_car" route="-E31_to_-E22" depart="482.0" departLane="allowed" />
    <vehicle id="-E31_to_-E22_71" type="standard_car" route="-E31_to_-E22" depart="485.0" departLane="allowed" />
    <vehicle id="-E32_to_E33_72" type="standard_car" route="-E32_to_E33" depart="488.0" departLane="allowed" />
    <vehicle id="-E33_to_E32_73" type="standard_car" route="-E33_to_E32" depart="489.0" departLane="allowed" />
    <vehicle id="-E32_to_E33_74" type="standard_car" route="-E32_to_E33" depart="504.0" departLane="allowed" />
    <vehicle id="-E33_to_E32_75" type="standard_car" route="-E33_to_E32" depart="508.0" departLane="allowed" />
    <vehicle id="E22_to_E29_76" type="standard_car" route="E22_to_E29" depart="509.0" departLane="allowed" />
    <vehicle id="E22_to_E29_77" type="standard_car" route="E22_to_E29" depart="518.0" departLane="allowed" />
    <vehicle id="-E33_to_E32_78" type="standard_car" route="-E33_to_E32" depart="522.0" departLane="allowed" />
    <vehicle id="-E33_to_E32_79" type="standard_car" route="-E33_to_E32" depart="523.0" departLane="allowed" />
    <vehicle id="E22_to_E29_80" type="standard_car" route="E22_to_E29" depart="524.0" departLane="allowed" />
    <vehicle id="-E32_to_E33_81" type="standard_car" route="-E32_to_E33" depart="531.0" departLane="allowed" />
    <vehicle id="E22_to_E29_82" type="standard_car" route="E22_to_E29" depart="538.0" departLane="allowed" />
    <vehicle id="E22_to_E29_83" type="standard_car" route="E22_to_E29" depart="543.0" departLane="allowed" />
    <vehicle id="-E31_to_-E22_84" type="standard_car" route="-E31_to_-E22" depart="551.0" departLane="allowed" />
    <vehicle id="-E33_to_E32_85" type="standard_car" route="-E33_to_E32" depart="552.0" departLane="allowed" />
    <vehicle id="-E32_to_E33_86" type="standard_car" route="-E32_to_E33" depart="556.0" departLane="allowed" />
    <vehicle id="-E33_to_E32_87" type="standard_car" route="-E33_to_E32" depart="565.0" departLane="allowed" />
    <vehicle id="-E29_to_E31_88" type="standard_car" route="-E29_to_E31" depart="572.0" departLane="allowed" />
    <vehicle id="-E31_to_E29_89" type="standard_car" route="-E31_to_E29" depart="573.0" departLane="allowed" />
    <vehicle id="E22_to_E29_90" type="standard_car" route="E22_to_E29" depart="574.0" departLane="allowed" />
    <vehicle id="-E29_to_-E22_91" type="standard_car" route="-E29_to_-E22" depart="575.0" departLane="allowed" />
    <vehicle id="-E33_to_E32_92" type="standard_car" route="-E33_to_E32" depart="576.0" departLane="allowed" />
    <vehicle id="-E29_to_-E22_93" type="standard_car" route="-E29_to_-E22" depart="576.0" departLane="allowed" />
    <vehicle id="E22_to_E29_94" type="standard_car" route="E22_to_E29" depart="577.0" departLane="allowed" />
    <vehicle id="E22_to_E29_95" type="standard_car" route="E22_to_E29" depart="578.0" departLane="allowed" />
    <vehicle id="-E33_to_E32_96" type="standard_car" route="-E33_to_E32" depart="583.0" departLane="allowed" />
    <vehicle id="-E29_to_-E22_97" type="standard_car" route="-E29_to_-E22" depart="583.0" departLane="allowed" />
    <vehicle id="-E32_to_E33_98" type="standard_car" route="-E32_to_E33" depart="584.0" departLane="allowed" />
    <vehicle id="-E31_to_E29_99" type="standard_car" route="-E31_to_E29" depart="585.0" departLane="allowed" />
    <vehicle id="-E33_to_E32_100" type="standard_car" route="-E33_to_E32" depart="585.0" departLane="allowed" />
    <vehicle id="E22_to_E29_101" type="standard_car" route="E22_to_E29" depart="591.0" departLane="allowed" />
    <vehicle id="-E32_to_E33_102" type="standard_car" route="-E32_to_E33" depart="592.0" departLane="allowed" />
    <vehicle id="-E32_to_E31_103" type="standard_car" route="-E32_to_E31" depart="594.0" departLane="allowed" />
    <vehicle id="-E33_to_E32_104" type="standard_car" route="-E33_to_E32" depart="598.0" departLane="allowed" />
    <vehicle id="-E32_to_E31_105" type="standard_car" route="-E32_to_E31" depart="602.0" departLane="allowed" />
    <vehicle id="-E32_to_E33_106" type="standard_car" route="-E32_to_E33" depart="606.0" departLane="allowed" />
    <vehicle id="-E32_to_E31_107" type="standard_car" route="-E32_to_E31" depart="606.0" departLane="allowed" />
    <vehicle id="E22_to_E29_108" type="standard_car" route="E22_to_E29" depart="607.0" departLane="allowed" />
    <vehicle id="E22_to_E29_109" type="standard_car" route="E22_to_E29" depart="614.0" departLane="allowed" />
    <vehicle id="-E33_to_E32_110" type="standard_car" route="-E33_to_E32" depart="616.0" departLane="allowed" />
    <vehicle id="-E32_to_E31_111" type="standard_car" route="-E32_to_E31" depart="616.0" departLane="allowed" />
    <vehicle id="-E29_to_E31_112" type="standard_car" route="-E29_to_E31" depart="619.0" departLane="allowed" />
    <vehicle id="E22_to_E29_113" type="standard_car" route="E22_to_E29" depart="622.0" departLane="allowed" />
    <vehicle id="-E33_to_E32_114" type="standard_car" route="-E33_to_E32" depart="631.0" departLane="allowed" />
    <vehicle id="E22_to_E29_115" type="standard_car" route="E22_to_E29" depart="631.0" departLane="allowed" />
    <vehicle id="-E31_to_E29_116" type="standard_car" route="-E31_to_E29" depart="631.0" departLane="allowed" />
    <vehicle id="-E32_to_E31_117" type="standard_car" route="-E32_to_E31" depart="632.0" departLane="allowed" />
    <vehicle id="E22_to_E29_118" type="standard_car" route="E22_to_E29" depart="632.0" departLane="allowed" />
    <vehicle id="-E31_to_E29_119" type="standard_car" route="-E31_to_E29" depart="636.0" departLane="allowed" />
    <vehicle id="-E32_to_E31_120" type="standard_car" route="-E32_to_E31" depart="636.0" departLane="allowed" />
    <vehicle id="-E31_to_E29_121" type="standard_car" route="-E31_to_E29" depart="636.0" departLane="allowed" />
    <vehicle id="-E32_to_E33_122" type="standard_car" route="-E32_to_E33" depart="636.0" departLane="allowed" />
    <vehicle id="-E32_to_E31_123" type="standard_car" route="-E32_to_E31" depart="636.0" departLane="allowed" />
    <vehicle id="-E31_to_E29_124" type="standard_car" route="-E31_to_E29" depart="639.0" departLane="allowed" />
    <vehicle id="-E29_to_E31_125" type="standard_car" route="-E29_to_E31" depart="640.0" departLane="allowed" />
    <vehicle id="-E31_to_E29_126" type="standard_car" route="-E31_to_E29" depart="644.0" departLane="allowed" />
    <vehicle id="-E33_to_E32_127" type="standard_car" route="-E33_to_E32" depart="644.0" departLane="allowed" />
    <vehicle id="-E29_to_-E22_128" type="standard_car" route="-E29_to_-E22" depart="654.0" departLane="allowed" />
    <vehicle id="-E29_to_-E22_129" type="standard_car" route="-E29_to_-E22" depart="669.0" departLane="allowed" />
    <vehicle id="-E33_to_E32_130" type="standard_car" route="-E33_to_E32" depart="669.0" departLane="allowed" />
    <vehicle id="-E29_to_-E22_131" type="standard_car" route="-E29_to_-E22" depart="675.0" departLane="allowed" />
    <vehicle id="-E33_to_E32_132" type="standard_car" route="-E33_to_E32" depart="675.0" departLane="allowed" />
    <vehicle id="-E32_to_E33_133" type="standard_car" route="-E32_to_E33" depart="676.0" departLane="allowed" />
    <vehicle id="-E31_to_E29_134" type="standard_car" route="-E31_to_E29" depart="677.0" departLane="allowed" />
    <vehicle id="-E32_to_E33_135" type="standard_car" route="-E32_to_E33" depart="677.0" departLane="allowed" />
    <vehicle id="E22_to_E29_136" type="standard_car" route="E22_to_E29" depart="679.0" departLane="allowed" />
    <vehicle id="-E33_to_E32_137" type="standard_car" route="-E33_to_E32" depart="681.0" departLane="allowed" />
    <vehicle id="-E31_to_E29_138" type="standard_car" route="-E31_to_E29" depart="681.0" departLane="allowed" />
    <vehicle id="E22_to_E29_139" type="standard_car" route="E22_to_E29" depart="687.0" departLane="allowed" />
    <vehicle id="E22_to_E29_140" type="standard_car" route="E22_to_E29" depart="691.0" departLane="allowed" />
    <vehicle id="-E29_to_E31_141" type="standard_car" route="-E29_to_E31" depart="694.0" departLane="allowed" />
    <vehicle id="-E33_to_E32_142" type="standard_car" route="-E33_to_E32" depart="697.0" departLane="allowed" />
    <vehicle id="-E32_to_E31_143" type="standard_car" route="-E32_to_E31" depart="700.0" departLane="allowed" />
    <vehicle id="-E29_to_-E22_144" type="standard_car" route="-E29_to_-E22" depart="700.0" departLane="allowed" />
    <vehicle id="-E31_to_E29_145" type="standard_car" route="-E31_to_E29" depart="703.0" departLane="allowed" />
    <vehicle id="E22_to_E29_146" type="standard_car" route="E22_to_E29" depart="708.0" departLane="allowed" />
    <vehicle id="-E33_to_E32_147" type="standard_car" route="-E33_to_E32" depart="712.0" departLane="allowed" />
    <vehicle id="-E31_to_-E22_148" type="standard_car" route="-E31_to_-E22" depart="718.0" departLane="allowed" />
    <vehicle id="-E32_to_E33_149" type="standard_car" route="-E32_to_E33" depart="720.0" departLane="allowed" />
    <vehicle id="-E33_to_E32_150" type="standard_car" route="-E33_to_E32" depart="720.0" departLane="allowed" />
    <vehicle id="E22_to_E29_151" type="standard_car" route="E22_to_E29" depart="720.0" departLane="allowed" />
    <vehicle id="E22_to_E29_152" type="standard_car" route="E22_to_E29" depart="721.0" departLane="allowed" />
    <vehicle id="-E33_to_E32_153" type="standard_car" route="-E33_to_E32" depart="724.0" departLane="allowed" />
    <vehicle id="-E29_to_-E22_154" type="standard_car" route="-E29_to_-E22" depart="728.0" departLane="allowed" />
    <vehicle id="-E32_to_E33_155" type="standard_car" route="-E32_to_E33" depart="732.0" departLane="allowed" />
    <vehicle id="E22_to_E29_156" type="standard_car" route="E22_to_E29" depart="734.0" departLane="allowed" />
    <vehicle id="-E29_to_-E22_157" type="standard_car" route="-E29_to_-E22" depart="742.0" departLane="allowed" />
    <vehicle id="-E29_to_-E22_158" type="standard_car" route="-E29_to_-E22" depart="749.0" departLane="allowed" />
    <vehicle id="-E29_to_-E22_159" type="standard_car" route="-E29_to_-E22" depart="749.0" departLane="allowed" />
    <vehicle id="-E29_to_-E22_160" type="standard_car" route="-E29_to_-E22" depart="750.0" departLane="allowed" />
    <vehicle id="-E33_to_E32_161" type="standard_car" route="-E33_to_E32" depart="751.0" departLane="allowed" />
    <vehicle id="-E29_to_-E22_162" type="standard_car" route="-E29_to_-E22" depart="752.0" departLane="allowed" />
    <vehicle id="-E29_to_-E22_163" type="standard_car" route="-E29_to_-E22" depart="753.0" departLane="allowed" />
    <vehicle id="E22_to_E29_164" type="standard_car" route="E22_to_E29" depart="753.0" departLane="allowed" />
    <vehicle id="-E33_to_E32_165" type="standard_car" route="-E33_to_E32" depart="755.0" departLane="allowed" />
    <vehicle id="E22_to_E29_166" type="standard_car" route="E22_to_E29" depart="757.0" departLane="allowed" />
    <vehicle id="-E31_to_E29_167" type="standard_car" route="-E31_to_E29" depart="758.0" departLane="allowed" />
    <vehicle id="-E33_to_E32_168" type="standard_car" route="-E33_to_E32" depart="758.0" departLane="allowed" />
    <vehicle id="-E31_to_E29_169" type="standard_car" route="-E31_to_E29" depart="759.0" departLane="allowed" />
    <vehicle id="-E32_to_E33_170" type="standard_car" route="-E32_to_E33" depart="764.0" departLane="allowed" />
    <vehicle id="-E29_to_E31_171" type="standard_car" route="-E29_to_E31" depart="767.0" departLane="allowed" />
    <vehicle id="-E29_to_-E22_172" type="standard_car" route="-E29_to_-E22" depart="775.0" departLane="allowed" />
    <vehicle id="-E32_to_E33_173" type="standard_car" route="-E32_to_E33" depart="781.0" departLane="allowed" />
    <vehicle id="-E29_to_E31_174" type="standard_car" route="-E29_to_E31" depart="782.0" departLane="allowed" />
    <vehicle id="E22_to_E29_175" type="standard_car" route="E22_to_E29" depart="784.0" departLane="allowed" />
    <vehicle id="-E31_to_E29_176" type="standard_car" route="-E31_to_E29" depart="789.0" departLane="allowed" />
    <vehicle id="-E29_to_E31_177" type="standard_car" route="-E29_to_E31" depart="789.0" departLane="allowed" />
    <vehicle id="E22_to_E29_178" type="standard_car" route="E22_to_E29" depart="790.0" departLane="allowed" />
    <vehicle id="-E29_to_-E22_179" type="standard_car" route="-E29_to_-E22" depart="793.0" departLane="allowed" />
    <vehicle id="E22_to_E29_180" type="standard_car" route="E22_to_E29" depart="794.0" departLane="allowed" />
    <vehicle id="-E33_to_E32_181" type="standard_car" route="-E33_to_E32" depart="798.0" departLane="allowed" />
    <vehicle id="-E32_to_E33_182" type="standard_car" route="-E32_to_E33" depart="801.0" departLane="allowed" />
    <vehicle id="E22_to_E29_183" type="standard_car" route="E22_to_E29" depart="801.0" departLane="allowed" />
    <vehicle id="-E31_to_E29_184" type="standard_car" route="-E31_to_E29" depart="805.0" departLane="allowed" />
    <vehicle id="E22_to_E29_185" type="standard_car" route="E22_to_E29" depart="809.0" departLane="allowed" />
    <vehicle id="-E33_to_E32_186" type="standard_car" route="-E33_to_E32" depart="810.0" departLane="allowed" />
    <vehicle id="-E33_to_E32_187" type="standard_car" route="-E33_to_E32" depart="810.0" departLane="allowed" />
    <vehicle id="E22_to_E29_188" type="standard_car" route="E22_to_E29" depart="815.0" departLane="allowed" />
    <vehicle id="-E29_to_-E22_189" type="standard_car" route="-E29_to_-E22" depart="815.0" departLane="allowed" />
    <vehicle id="-E31_to_-E22_190" type="standard_car" route="-E31_to_-E22" depart="816.0" departLane="allowed" />
    <vehicle id="-E29_to_E31_191" type="standard_car" route="-E29_to_E31" depart="817.0" departLane="allowed" />
    <vehicle id="-E32_to_E33_192" type="standard_car" route="-E32_to_E33" depart="819.0" departLane="allowed" />
    <vehicle id="-E32_to_E33_193" type="standard_car" route="-E32_to_E33" depart="826.0" departLane="allowed" />
    <vehicle id="-E29_to_E31_194" type="standard_car" route="-E29_to_E31" depart="828.0" departLane="allowed" />
    <vehicle id="-E29_to_-E22_195" type="standard_car" route="-E29_to_-E22" depart="842.0" departLane="allowed" />
    <vehicle id="-E32_to_E33_196" type="standard_car" route="-E32_to_E33" depart="843.0" departLane="allowed" />
    <vehicle id="-E32_to_E33_197" type="standard_car" route="-E32_to_E33" depart="844.0" departLane="allowed" />
    <vehicle id="-E33_to_E32_198" type="standard_car" route="-E33_to_E32" depart="849.0" departLane="allowed" />
    <vehicle id="-E32_to_E31_199" type="standard_car" route="-E32_to_E31" depart="850.0" departLane="allowed" />
    <vehicle id="-E32_to_E31_200" type="standard_car" route="-E32_to_E31" depart="862.0" departLane="allowed" />
    <vehicle id="-E31_to_E29_201" type="standard_car" route="-E31_to_E29" depart="868.0" departLane="allowed" />
    <vehicle id="-E29_to_E31_202" type="standard_car" route="-E29_to_E31" depart="870.0" departLane="allowed" />
    <vehicle id="-E33_to_E32_203" type="standard_car" route="-E33_to_E32" depart="871.0" departLane="allowed" />
    <vehicle id="-E33_to_E32_204" type="standard_car" route="-E33_to_E32" depart="873.0" departLane="allowed" />
    <vehicle id="-E29_to_-E22_205" type="standard_car" route="-E29_to_-E22" depart="874.0" departLane="allowed" />
    <vehicle id="-E32_to_E31_206" type="standard_car" route="-E32_to_E31" depart="875.0" departLane="allowed" />
    <vehicle id="-E33_to_E32_207" type="standard_car" route="-E33_to_E32" depart="877.0" departLane="allowed" />
    <vehicle id="E22_to_E29_208" type="standard_car" route="E22_to_E29" depart="880.0" departLane="allowed" />
    <vehicle id="-E33_to_E32_209" type="standard_car" route="-E33_to_E32" depart="882.0" departLane="allowed" />
    <vehicle id="-E31_to_-E22_210" type="standard_car" route="-E31_to_-E22" depart="883.0" departLane="allowed" />
    <vehicle id="-E31_to_E29_211" type="standard_car" route="-E31_to_E29" depart="887.0" departLane="allowed" />
    <vehicle id="-E31_to_E29_212" type="standard_car" route="-E31_to_E29" depart="887.0" departLane="allowed" />
    <vehicle id="E22_to_E29_213" type="standard_car" route="E22_to_E29" depart="889.0" departLane="allowed" />
    <vehicle id="-E32_to_E33_214" type="standard_car" route="-E32_to_E33" depart="890.0" departLane="allowed" />
    <vehicle id="-E31_to_E29_215" type="standard_car" route="-E31_to_E29" depart="890.0" departLane="allowed" />
    <vehicle id="-E32_to_E31_216" type="standard_car" route="-E32_to_E31" depart="892.0" departLane="allowed" />
    <vehicle id="-E32_to_E33_217" type="standard_car" route="-E32_to_E33" depart="897.0" departLane="allowed" />
    <vehicle id="E22_to_E29_218" type="standard_car" route="E22_to_E29" depart="900.0" departLane="allowed" />
    <vehicle id="-E32_to_E33_219" type="standard_car" route="-E32_to_E33" depart="900.0" departLane="allowed" />
    <vehicle id="-E33_to_E32_220" type="standard_car" route="-E33_to_E32" depart="904.0" departLane="allowed" />
    <vehicle id="E22_to_E29_221" type="standard_car" route="E22_to_E29" depart="904.0" departLane="allowed" />
    <vehicle id="E22_to_E29_222" type="standard_car" route="E22_to_E29" depart="906.0" departLane="allowed" />
    <vehicle id="-E29_to_-E22_223" type="standard_car" route="-E29_to_-E22" depart="907.0" departLane="allowed" />
    <vehicle id="-E31_to_E29_224" type="standard_car" route="-E31_to_E29" depart="914.0" departLane="allowed" />
    <vehicle id="-E32_to_E33_225" type="standard_car" route="-E32_to_E33" depart="914.0" departLane="allowed" />
    <vehicle id="E22_to_E29_226" type="standard_car" route="E22_to_E29" depart="915.0" departLane="allowed" />
    <vehicle id="E22_to_E29_227" type="standard_car" route="E22_to_E29" depart="917.0" departLane="allowed" />
    <vehicle id="-E32_to_E31_228" type="standard_car" route="-E32_to_E31" depart="919.0" departLane="allowed" />
    <vehicle id="-E33_to_E32_229" type="standard_car" route="-E33_to_E32" depart="924.0" departLane="allowed" />
    <vehicle id="-E32_to_E31_230" type="standard_car" route="-E32_to_E31" depart="925.0" departLane="allowed" />
    <vehicle id="-E33_to_E32_231" type="standard_car" route="-E33_to_E32" depart="926.0" departLane="allowed" />
    <vehicle id="-E33_to_E32_232" type="standard_car" route="-E33_to_E32" depart="926.0" departLane="allowed" />
    <vehicle id="E22_to_E29_233" type="standard_car" route="E22_to_E29" depart="928.0" departLane="allowed" />
    <vehicle id="-E29_to_-E22_234" type="standard_car" route="-E29_to_-E22" depart="938.0" departLane="allowed" />
    <vehicle id="-E31_to_E29_235" type="standard_car" route="-E31_to_E29" depart="938.0" departLane="allowed" />
    <vehicle id="-E32_to_E33_236" type="standard_car" route="-E32_to_E33" depart="938.0" departLane="allowed" />
    <vehicle id="-E29_to_-E22_237" type="standard_car" route="-E29_to_-E22" depart="939.0" departLane="allowed" />
    <vehicle id="-E29_to_-E22_238" type="standard_car" route="-E29_to_-E22" depart="943.0" departLane="allowed" />
    <vehicle id="-E32_to_E33_239" type="standard_car" route="-E32_to_E33" depart="945.0" departLane="allowed" />
    <vehicle id="-E31_to_-E22_240" type="standard_car" route="-E31_to_-E22" depart="946.0" departLane="allowed" />
    <vehicle id="-E31_to_-E22_241" type="standard_car" route="-E31_to_-E22" depart="946.0" departLane="allowed" />
    <vehicle id="-E33_to_E32_242" type="standard_car" route="-E33_to_E32" depart="947.0" departLane="allowed" />
    <vehicle id="-E31_to_-E22_243" type="standard_car" route="-E31_to_-E22" depart="948.0" departLane="allowed" />
    <vehicle id="-E32_to_E31_244" type="standard_car" route="-E32_to_E31" depart="953.0" departLane="allowed" />
    <vehicle id="-E31_to_-E22_245" type="standard_car" route="-E31_to_-E22" depart="954.0" departLane="allowed" />
    <vehicle id="-E32_to_E33_246" type="standard_car" route="-E32_to_E33" depart="955.0" departLane="allowed" />
    <vehicle id="-E31_to_-E22_247" type="standard_car" route="-E31_to_-E22" depart="957.0" departLane="allowed" />
    <vehicle id="-E29_to_E31_248" type="standard_car" route="-E29_to_E31" depart="958.0" departLane="allowed" />
    <vehicle id="-E31_to_E29_249" type="standard_car" route="-E31_to_E29" depart="960.0" departLane="allowed" />
    <vehicle id="-E29_to_E31_250" type="standard_car" route="-E29_to_E31" depart="960.0" departLane="allowed" />
    <vehicle id="E22_to_E29_251" type="standard_car" route="E22_to_E29" depart="962.0" departLane="allowed" />
    <vehicle id="-E29_to_-E22_252" type="standard_car" route="-E29_to_-E22" depart="963.0" departLane="allowed" />
    <vehicle id="-E29_to_-E22_253" type="standard_car" route="-E29_to_-E22" depart="964.0" departLane="allowed" />
    <vehicle id="E22_to_E29_254" type="standard_car" route="E22_to_E29" depart="966.0" departLane="allowed" />
    <vehicle id="-E32_to_E33_255" type="standard_car" route="-E32_to_E33" depart="970.0" departLane="allowed" />
    <vehicle id="-E29_to_-E22_256" type="standard_car" route="-E29_to_-E22" depart="973.0" departLane="allowed" />
    <vehicle id="-E32_to_E33_257" type="standard_car" route="-E32_to_E33" depart="973.0" departLane="allowed" />
    <vehicle id="-E29_to_-E22_258" type="standard_car" route="-E29_to_-E22" depart="974.0" departLane="allowed" />
    <vehicle id="-E29_to_-E22_259" type="standard_car" route="-E29_to_-E22" depart="974.0" departLane="allowed" />
    <vehicle id="-E32_to_E33_260" type="standard_car" route="-E32_to_E33" depart="975.0" departLane="allowed" />