<?xml version="1.0" encoding="UTF-8"?>

<!-- generated on 2022-06-06 20:05:57 by Eclipse SUMO netedit Version 1.13.0
<configuration xmlns:xsi="http://www.w3.org/2001/XMLSchema-instance" xsi:noNamespaceSchemaLocation="http://sumo.dlr.de/xsd/netconvertConfiguration.xsd">

    <input>
        <sumo-net-file value="Quirino.net.xml"/>
    </input>

    <output>
        <output-file value="Quirino.net.xml"/>
    </output>

    <processing>
        <geometry.min-radius.fix.railways value="false"/>
        <geometry.max-grade.fix value="false"/>
        <offset.disable-normalization value="true"/>
        <lefthand value="false"/>
    </processing>

    <junctions>
        <no-turnarounds value="true"/>
        <junctions.corner-detail value="5"/>
        <junctions.limit-turn-speed value="5.5"/>
        <rectangular-lane-cut value="false"/>
    </junctions>

    <pedestrian>
        <walkingareas value="false"/>
    </pedestrian>

    <report>
        <aggregate-warnings value="5"/>
    </report>

</configuration>
-->

<net version="1.9" junctionCornerDetail="5" limitTurnSpeed="5.50" xmlns:xsi="http://www.w3.org/2001/XMLSchema-instance" xsi:noNamespaceSchemaLocation="http://sumo.dlr.de/xsd/net_file.xsd">

    <location netOffset="0.00,0.00" convBoundary="-4400.00,-3000.00,4500.00,40800.00" origBoundary="-10000000000.00,-10000000000.00,10000000000.00,10000000000.00" projParameter="!"/>

    <edge id=":Qurino_0" function="internal">
        <lane id=":Qurino_0_0" index="0" speed="16.67" length="24.11" shape="-111.20,10213.60 -111.70,10206.45 -112.80,10201.60 -113.90,10196.75 -114.40,10189.60"/>
        <lane id=":Qurino_0_1" index="1" speed="16.67" length="24.11" shape="-111.20,10213.60 -111.20,10189.60"/>
        <lane id=":Qurino_0_2" index="2" speed="16.67" length="24.11" shape="-108.00,10213.60 -108.00,10189.60"/>
        <lane id=":Qurino_0_3" index="3" speed="16.67" length="24.11" shape="-104.80,10213.60 -104.80,10189.60"/>
        <lane id=":Qurino_0_4" index="4" speed="16.67" length="24.11" shape="-104.80,10213.60 -104.30,10206.45 -103.20,10201.60 -102.10,10196.75 -101.60,10189.60"/>
    </edge>
    <edge id=":Qurino_5" function="internal">
        <lane id=":Qurino_5_0" index="0" speed="16.67" length="113.50" shape="-101.60,10213.60 10.40,10195.20"/>
        <lane id=":Qurino_5_1" index="1" speed="16.67" length="113.03" shape="-101.60,10213.60 10.40,10198.40"/>
    </edge>
    <edge id=":Qurino_7" function="internal">
        <lane id=":Qurino_7_0" index="0" speed="16.67" length="24.00" shape="-4.80,10213.60 -4.80,10189.60"/>
        <lane id=":Qurino_7_1" index="1" speed="16.67" length="24.00" shape="-1.60,10213.60 -1.60,10189.60"/>
    </edge>
    <edge id=":Qurino_9" function="internal">
        <lane id=":Qurino_9_0" index="0" speed="16.67" length="99.77" shape="10.40,10208.00 -33.00,10208.35 -64.00,10209.40 -82.60,10211.15 -88.80,10213.60"/>
        <lane id=":Qurino_9_1" index="1" speed="16.67" length="102.55" shape="10.40,10208.00 -92.00,10213.60"/>
        <lane id=":Qurino_9_2" index="2" speed="16.67" length="105.97" shape="10.40,10204.80 -95.20,10213.60"/>
        <lane id=":Qurino_9_3" index="3" speed="16.67" length="109.16" shape="10.40,10204.80 -98.40,10213.60"/>
    </edge>
    <edge id=":Qurino_13" function="internal">
        <lane id=":Qurino_13_0" index="0" speed="16.67" length="125.72" shape="10.40,10204.80 -114.40,10189.60"/>
        <lane id=":Qurino_13_1" index="1" speed="16.67" length="122.55" shape="10.40,10204.80 -111.20,10189.60"/>
        <lane id=":Qurino_13_2" index="2" speed="16.67" length="119.37" shape="10.40,10204.80 -108.00,10189.60"/>
        <lane id=":Qurino_13_3" index="3" speed="16.67" length="115.82" shape="10.40,10201.60 -104.80,10189.60"/>
        <lane id=":Qurino_13_4" index="4" speed="16.67" length="112.64" shape="10.40,10201.60 -101.60,10189.60"/>
    </edge>
    <edge id=":Qurino_18" function="internal">
        <lane id=":Qurino_18_0" index="0" speed="6.51" length="9.03" shape="4.80,10189.60 5.15,10192.05 6.20,10193.80 7.95,10194.85 10.40,10195.20"/>
    </edge>
    <edge id=":Qurino_19" function="internal">
        <lane id=":Qurino_19_0" index="0" speed="16.67" length="24.00" shape="4.80,10189.60 4.80,10213.60"/>
        <lane id=":Qurino_19_1" index="1" speed="16.67" length="24.00" shape="1.60,10189.60 1.60,10213.60"/>
    </edge>
    <edge id=":Qurino_21" function="internal">
        <lane id=":Qurino_21_0" index="0" speed="16.67" length="24.00" shape="-88.80,10189.60 -88.80,10213.60"/>
        <lane id=":Qurino_21_1" index="1" speed="16.67" length="24.00" shape="-92.00,10189.60 -92.00,10213.60"/>
        <lane id=":Qurino_21_2" index="2" speed="16.67" length="24.00" shape="-95.20,10189.60 -95.20,10213.60"/>
        <lane id=":Qurino_21_3" index="3" speed="16.67" length="24.00" shape="-98.40,10189.60 -98.40,10213.60"/>
    </edge>

    <edge id="-E22" from="Qurino" to="J19" priority="-1" length="1000.00" shape="-100.00,10200.00 -100.00,9200.00">
        <lane id="-E22_0" index="0" speed="16.67" length="1000.00" shape="-114.40,10189.60 -114.40,9200.00"/>
        <lane id="-E22_1" index="1" speed="16.67" length="1000.00" shape="-111.20,10189.60 -111.20,9200.00"/>
        <lane id="-E22_2" index="2" speed="16.67" length="1000.00" shape="-108.00,10189.60 -108.00,9200.00"/>
        <lane id="-E22_3" index="3" speed="16.67" length="1000.00" shape="-104.80,10189.60 -104.80,9200.00"/>
        <lane id="-E22_4" index="4" speed="16.67" length="1000.00" shape="-101.60,10189.60 -101.60,9200.00"/>
    </edge>
    <edge id="-E29" from="J29" to="Qurino" priority="-1" length="1000.00" shape="-100.00,11200.00 -100.00,10200.00">
        <lane id="-E29_0" index="0" speed="16.67" length="1000.00" shape="-111.20,11200.00 -111.20,10213.60"/>
        <lane id="-E29_1" index="1" speed="16.67" length="1000.00" shape="-108.00,11200.00 -108.00,10213.60"/>
        <lane id="-E29_2" index="2" speed="16.67" length="1000.00" shape="-104.80,11200.00 -104.80,10213.60"/>
        <lane id="-E29_3" index="3" speed="16.67" length="1000.00" shape="-101.60,11200.00 -101.60,10213.60"/>
    </edge>
    <edge id="-E31" from="J32" to="Qurino" priority="-1" length="1000.00" shape="950.00,10200.00 0.00,10200.00">
        <lane id="-E31_0" index="0" speed="16.67" length="1000.00" shape="950.00,10208.00 10.40,10208.00"/>
        <lane id="-E31_1" index="1" speed="16.67" length="1000.00" shape="950.00,10204.80 10.40,10204.80"/>
        <lane id="-E31_2" index="2" speed="16.67" length="1000.00" shape="950.00,10201.60 10.40,10201.60"/>
    </edge>
    <edge id="-E32" from="J33" to="Qurino" priority="-1" length="1000.00" shape="0.00,9200.00 0.00,10200.00">
        <lane id="-E32_0" index="0" speed="16.67" length="1000.00" shape="4.80,9200.00 4.80,10189.60"/>
        <lane id="-E32_1" index="1" speed="16.67" length="1000.00" shape="1.60,9200.00 1.60,10189.60"/>
    </edge>
    <edge id="-E33" from="J34" to="Qurino" priority="-1" length="1000.00" shape="0.00,11200.00 0.00,10200.00">
        <lane id="-E33_0" index="0" speed="16.67" length="1000.00" shape="-4.80,11200.00 -4.80,10213.60"/>
        <lane id="-E33_1" index="1" speed="16.67" length="1000.00" shape="-1.60,11200.00 -1.60,10213.60"/>
    </edge>
    <edge id="E22" from="J19" to="Qurino" priority="-1" length="1000.00" shape="-100.00,9200.00 -100.00,10200.00">
        <lane id="E22_0" index="0" speed="16.67" length="1000.00" shape="-88.80,9200.00 -88.80,10189.60"/>
        <lane id="E22_1" index="1" speed="16.67" length="1000.00" shape="-92.00,9200.00 -92.00,10189.60"/>
        <lane id="E22_2" index="2" speed="16.67" length="1000.00" shape="-95.20,9200.00 -95.20,10189.60"/>
        <lane id="E22_3" index="3" speed="16.67" length="1000.00" shape="-98.40,9200.00 -98.40,10189.60"/>
    </edge>
    <edge id="E29" from="Qurino" to="J29" priority="-1" length="1000.00" shape="-100.00,10200.00 -100.00,11200.00">
        <lane id="E29_0" index="0" speed="16.67" length="1000.00" shape="-88.80,10213.60 -88.80,11200.00"/>
        <lane id="E29_1" index="1" speed="16.67" length="1000.00" shape="-92.00,10213.60 -92.00,11200.00"/>
        <lane id="E29_2" index="2" speed="16.67" length="1000.00" shape="-95.20,10213.60 -95.20,11200.00"/>
        <lane id="E29_3" index="3" speed="16.67" length="1000.00" shape="-98.40,10213.60 -98.40,11200.00"/>
    </edge>
    <edge id="E31" from="Qurino" to="J32" priority="-1" length="1000.00" shape="0.00,10200.00 950.00,10200.00">
        <lane id="E31_0" index="0" speed="16.67" length="1000.00" shape="10.40,10195.20 950.00,10195.20"/>
        <lane id="E31_1" index="1" speed="16.67" length="1000.00" shape="10.40,10198.40 950.00,10198.40"/>
    </edge>
    <edge id="E32" from="Qurino" to="J33" priority="-1" length="1000.00" shape="0.00,10200.00 0.00,9200.00">
        <lane id="E32_0" index="0" speed="16.67" length="1000.00" shape="-4.80,10189.60 -4.80,9200.00"/>
        <lane id="E32_1" index="1" speed="16.67" length="1000.00" shape="-1.60,10189.60 -1.60,9200.00"/>
    </edge>
    <edge id="E33" from="Qurino" to="J34" priority="-1" length="1000.00" shape="0.00,10200.00 0.00,11200.00">
        <lane id="E33_0" index="0" speed="16.67" length="1000.00" shape="4.80,10213.60 4.80,11200.00"/>
        <lane id="E33_1" index="1" speed="16.67" length="1000.00" shape="1.60,10213.60 1.60,11200.00"/>
    </edge>

    <tlLogic id="Quirino" type="static" programID="0" offset="0">
        <phase duration="10" state="GGGGGrrGGrrrrrrrrrGGGGGGG"/>
        <phase duration="5"  state="yyyyyrryyrrrrrrrrryyyyyyy"/>
        <phase duration="10" state="rrrrrrrrrGGGGGGGGGGrrrrrr"/>
        <phase duration="5"  state="rrrrrrrrryyyyyyyyyyrrrrrr"/>
        <phase duration="10" state="GGGGGGGrrrrrrrrrrrrrrrrrr"/>
        <phase duration="5"  state="yyyyyyyrrrrrrrrrrrrrrrrrr"/>
        <phase duration="10" state="rrrrrGGrrrrrrrrrrrrrrrrrr"/>
        <phase duration="5"  state="rrrrryyrrrrrrrrrrrrrrrrrr"/>
    </tlLogic>

    <junction id="J10" type="dead_end" x="-3100.00" y="-1400.00" incLanes="" intLanes="" shape="-3100.00,-1400.00"/>
    <junction id="J11" type="dead_end" x="-100.00" y="-3000.00" incLanes="" intLanes="" shape="-100.00,-3000.00"/>
    <junction id="J14" type="dead_end" x="4500.00" y="32000.00" incLanes="" intLanes="" shape="4500.00,32000.00"/>
    <junction id="J16" type="dead_end" x="3000.00" y="2500.00" incLanes="" intLanes="" shape="3000.00,2500.00"/>
    <junction id="J17" type="dead_end" x="-3100.00" y="2500.00" incLanes="" intLanes="" shape="-3100.00,2500.00"/>
    <junction id="J18" type="dead_end" x="-100.00" y="2200.00" incLanes="" intLanes="" shape="-100.00,2200.00"/>
    <junction id="J19" type="dead_end" x="-100.00" y="9200.00" incLanes="-E22_0 -E22_1 -E22_2 -E22_3 -E22_4" intLanes="" shape="-100.00,9200.00 -116.00,9200.00 -100.00,9200.00"/>
    <junction id="J26" type="dead_end" x="-3900.00" y="10200.00" incLanes="" intLanes="" shape="-3900.00,10200.00"/>
    <junction id="J27" type="dead_end" x="-100.00" y="13300.00" incLanes="" intLanes="" shape="-100.00,13300.00"/>
    <junction id="J28" type="dead_end" x="4300.00" y="38000.00" incLanes="" intLanes="" shape="4300.00,38000.00"/>
    <junction id="J29" type="dead_end" x="-100.00" y="11200.00" incLanes="E29_0 E29_1 E29_2 E29_3" intLanes="" shape="-100.00,11200.00 -87.20,11200.00 -100.00,11200.00"/>
    <junction id="J32" type="dead_end" x="950.00" y="10200.00" incLanes="E31_0 E31_1" intLanes="" shape="950.00,10200.00 950.00,10193.60 950.00,10200.00"/>
    <junction id="J33" type="dead_end" x="0.00" y="9200.00" incLanes="E32_0 E32_1" intLanes="" shape="0.00,9200.00 -6.40,9200.00 0.00,9200.00"/>
    <junction id="J34" type="dead_end" x="0.00" y="11200.00" incLanes="E33_0 E33_1" intLanes="" shape="0.00,11200.00 6.40,11200.00 0.00,11200.00"/>
    <junction id="J35" type="dead_end" x="-100.00" y="11200.00" incLanes="" intLanes="" shape="-100.00,11200.00"/>
    <junction id="J37" type="dead_end" x="-3400.00" y="24200.00" incLanes="" intLanes="" shape="-3400.00,24200.00"/>
    <junction id="J38" type="dead_end" x="-100.00" y="28600.00" incLanes="" intLanes="" shape="-100.00,28600.00"/>
    <junction id="J39" type="dead_end" x="-100.00" y="40800.00" incLanes="" intLanes="" shape="-100.00,40800.00"/>
    <junction id="J40" type="dead_end" x="-4400.00" y="38000.00" incLanes="" intLanes="" shape="-4400.00,38000.00"/>
    <junction id="J8" type="dead_end" x="3000.00" y="-1400.00" incLanes="" intLanes="" shape="3000.00,-1400.00"/>
    <junction id="Qurino" type="traffic_light" x="-50.00" y="10200.00" incLanes="-E29_0 -E29_1 -E29_2 -E29_3 -E33_0 -E33_1 -E31_0 -E31_1 -E31_2 -E32_0 -E32_1 E22_0 E22_1 E22_2 E22_3" intLanes=":Qurino_0_0 :Qurino_0_1 :Qurino_0_2 :Qurino_0_3 :Qurino_0_4 :Qurino_5_0 :Qurino_5_1 :Qurino_7_0 :Qurino_7_1 :Qurino_9_0 :Qurino_9_1 :Qurino_9_2 :Qurino_9_3 :Qurino_13_0 :Qurino_13_1 :Qurino_13_2 :Qurino_13_3 :Qurino_13_4 :Qurino_18_0 :Qurino_19_0 :Qurino_19_1 :Qurino_21_0 :Qurino_21_1 :Qurino_21_2 :Qurino_21_3" shape="-112.80,10213.60 6.40,10213.60 6.84,10211.38 7.40,10210.60 8.18,10210.04 9.18,10209.71 10.40,10209.60 10.40,10193.60 8.18,10193.16 7.40,10192.60 6.84,10191.82 6.51,10190.82 6.40,10189.60 -116.00,10189.60 -115.76,10194.74 -115.17,10198.51 -113.63,10204.69 -113.04,10208.46">
        <request index="0"  response="0000000000000000000000000" foes="0000000111110000000000000" cont="0"/>
        <request index="1"  response="0000000000000000000000000" foes="0000000111110000000000000" cont="0"/>
        <request index="2"  response="0000000000000000000000000" foes="0000000111110000000000000" cont="0"/>
        <request index="3"  response="0000000000000000000000000" foes="0000000111110000000000000" cont="0"/>
        <request index="4"  response="0000000000000000000000000" foes="0000000111110000000000000" cont="0"/>
        <request index="5"  response="1111000000000000000000000" foes="1111111111110000110000000" cont="0"/>
        <request index="6"  response="1111000000000000000000000" foes="1111111111110000110000000" cont="0"/>
        <request index="7"  response="0000000000000000001100000" foes="0000000111111111001100000" cont="0"/>
        <request index="8"  response="0000000000000000001100000" foes="0000000111111111001100000" cont="0"/>
        <request index="9"  response="1111110000000000110000000" foes="1111110000000000110000000" cont="0"/>
        <request index="10" response="1111110000000000110000000" foes="1111110000000000110000000" cont="0"/>
        <request index="11" response="1111110000000000110000000" foes="1111110000000000110000000" cont="0"/>
        <request index="12" response="1111110000000000110000000" foes="1111110000000000110000000" cont="0"/>
        <request index="13" response="1111110000000000111111111" foes="1111110000000000111111111" cont="0"/>
        <request index="14" response="1111110000000000111111111" foes="1111110000000000111111111" cont="0"/>
        <request index="15" response="1111110000000000111111111" foes="1111110000000000111111111" cont="0"/>
        <request index="16" response="1111110000000000111111111" foes="1111110000000000111111111" cont="0"/>
        <request index="17" response="1111110000000000111111111" foes="1111110000000000111111111" cont="0"/>
        <request index="18" response="0000000000000000001100000" foes="0000000000000000001100000" cont="0"/>
        <request index="19" response="0000000000000000001100000" foes="0000000111111111001100000" cont="0"/>
        <request index="20" response="0000000000000000001100000" foes="0000000111111111001100000" cont="0"/>
        <request index="21" response="0000000000000000000000000" foes="0000000111111111001100000" cont="0"/>
        <request index="22" response="0000000000000000000000000" foes="0000000111111111001100000" cont="0"/>
        <request index="23" response="0000000000000000000000000" foes="0000000111111111001100000" cont="0"/>
        <request index="24" response="0000000000000000000000000" foes="0000000111111111001100000" cont="0"/>
    </junction>

    <connection from="-E29" to="-E22" fromLane="0" toLane="0" via=":Qurino_0_0" tl="Quirino" linkIndex="0" dir="s" state="O"/>
    <connection from="-E29" to="-E22" fromLane="0" toLane="1" via=":Qurino_0_1" tl="Quirino" linkIndex="1" dir="s" state="O"/>
    <connection from="-E29" to="-E22" fromLane="1" toLane="2" via=":Qurino_0_2" tl="Quirino" linkIndex="2" dir="s" state="O"/>
    <connection from="-E29" to="-E22" fromLane="2" toLane="3" via=":Qurino_0_3" tl="Quirino" linkIndex="3" dir="s" state="O"/>
    <connection from="-E29" to="-E22" fromLane="2" toLane="4" via=":Qurino_0_4" tl="Quirino" linkIndex="4" dir="s" state="O"/>
    <connection from="-E29" to="E31" fromLane="3" toLane="0" via=":Qurino_5_0" tl="Quirino" linkIndex="5" dir="L" state="o"/>
    <connection from="-E29" to="E31" fromLane="3" toLane="1" via=":Qurino_5_1" tl="Quirino" linkIndex="6" dir="L" state="o"/>
    <connection from="-E31" to="E29" fromLane="0" toLane="0" via=":Qurino_9_0" tl="Quirino" linkIndex="9" dir="R" state="o"/>
    <connection from="-E31" to="E29" fromLane="0" toLane="1" via=":Qurino_9_1" tl="Quirino" linkIndex="10" dir="R" state="o"/>
    <connection from="-E31" to="E29" fromLane="1" toLane="2" via=":Qurino_9_2" tl="Quirino" linkIndex="11" dir="R" state="o"/>
    <connection from="-E31" to="E29" fromLane="1" toLane="3" via=":Qurino_9_3" tl="Quirino" linkIndex="12" dir="R" state="o"/>
    <connection from="-E31" to="-E22" fromLane="1" toLane="0" via=":Qurino_13_0" tl="Quirino" linkIndex="13" dir="L" state="o"/>
    <connection from="-E31" to="-E22" fromLane="1" toLane="1" via=":Qurino_13_1" tl="Quirino" linkIndex="14" dir="L" state="o"/>
    <connection from="-E31" to="-E22" fromLane="1" toLane="2" via=":Qurino_13_2" tl="Quirino" linkIndex="15" dir="L" state="o"/>
    <connection from="-E31" to="-E22" fromLane="2" toLane="3" via=":Qurino_13_3" tl="Quirino" linkIndex="16" dir="L" state="o"/>
    <connection from="-E31" to="-E22" fromLane="2" toLane="4" via=":Qurino_13_4" tl="Quirino" linkIndex="17" dir="L" state="o"/>
    <connection from="-E32" to="E31" fromLane="0" toLane="0" via=":Qurino_18_0" tl="Quirino" linkIndex="18" dir="r" state="o"/>
    <connection from="-E32" to="E33" fromLane="0" toLane="0" via=":Qurino_19_0" tl="Quirino" linkIndex="19" dir="s" state="o"/>
    <connection from="-E32" to="E33" fromLane="1" toLane="1" via=":Qurino_19_1" tl="Quirino" linkIndex="20" dir="s" state="o"/>
    <connection from="-E33" to="E32" fromLane="0" toLane="0" via=":Qurino_7_0" tl="Quirino" linkIndex="7" dir="s" state="o"/>
    <connection from="-E33" to="E32" fromLane="1" toLane="1" via=":Qurino_7_1" tl="Quirino" linkIndex="8" dir="s" state="o"/>
    <connection from="E22" to="E29" fromLane="0" toLane="0" via=":Qurino_21_0" tl="Quirino" linkIndex="21" dir="s" state="O"/>
    <connection from="E22" to="E29" fromLane="1" toLane="1" via=":Qurino_21_1" tl="Quirino" linkIndex="22" dir="s" state="O"/>
    <connection from="E22" to="E29" fromLane="2" toLane="2" via=":Qurino_21_2" tl="Quirino" linkIndex="23" dir="s" state="O"/>
    <connection from="E22" to="E29" fromLane="3" toLane="3" via=":Qurino_21_3" tl="Quirino" linkIndex="24" dir="s" state="O"/>

    <connection from=":Qurino_0" to="-E22" fromLane="0" toLane="0" dir="s" state="M"/>
    <connection from=":Qurino_0" to="-E22" fromLane="1" toLane="1" dir="s" state="M"/>
    <connection from=":Qurino_0" to="-E22" fromLane="2" toLane="2" dir="s" state="M"/>
    <connection from=":Qurino_0" to="-E22" fromLane="3" toLane="3" dir="s" state="M"/>
    <connection from=":Qurino_0" to="-E22" fromLane="4" toLane="4" dir="s" state="M"/>
    <connection from=":Qurino_5" to="E31" fromLane="0" toLane="0" dir="L" state="M"/>
    <connection from=":Qurino_5" to="E31" fromLane="1" toLane="1" dir="L" state="M"/>
    <connection from=":Qurino_7" to="E32" fromLane="0" toLane="0" dir="s" state="M"/>
    <connection from=":Qurino_7" to="E32" fromLane="1" toLane="1" dir="s" state="M"/>
    <connection from=":Qurino_9" to="E29" fromLane="0" toLane="0" dir="R" state="M"/>
    <connection from=":Qurino_9" to="E29" fromLane="1" toLane="1" dir="R" state="M"/>
    <connection from=":Qurino_9" to="E29" fromLane="2" toLane="2" dir="R" state="M"/>
    <connection from=":Qurino_9" to="E29" fromLane="3" toLane="3" dir="R" state="M"/>
    <connection from=":Qurino_13" to="-E22" fromLane="0" toLane="0" dir="L" state="M"/>
    <connection from=":Qurino_13" to="-E22" fromLane="1" toLane="1" dir="L" state="M"/>
    <connection from=":Qurino_13" to="-E22" fromLane="2" toLane="2" dir="L" state="M"/>
    <connection from=":Qurino_13" to="-E22" fromLane="3" toLane="3" dir="L" state="M"/>
    <connection from=":Qurino_13" to="-E22" fromLane="4" toLane="4" dir="L" state="M"/>
    <connection from=":Qurino_18" to="E31" fromLane="0" toLane="0" dir="r" state="M"/>
    <connection from=":Qurino_19" to="E33" fromLane="0" toLane="0" dir="s" state="M"/>
    <connection from=":Qurino_19" to="E33" fromLane="1" toLane="1" dir="s" state="M"/>
    <connection from=":Qurino_21" to="E29" fromLane="0" toLane="0" dir="s" state="M"/>
    <connection from=":Qurino_21" to="E29" fromLane="1" toLane="1" dir="s" state="M"/>
    <connection from=":Qurino_21" to="E29" fromLane="2" toLane="2" dir="s" state="M"/>
    <connection from=":Qurino_21" to="E29" fromLane="3" toLane="3" dir="s" state="M"/>

</net>
