<routes>
    <vType accel="0.8" id="standard_car" decel="4.5" length="5.0" minGap="2.5" maxSpeed="16.67" sigma="0.5" />
    
    <route id="-E29_to_-E22" edges="-E29 -E22" />
    <route id="-E29_to_E31" edges="-E29 E31" />
    <route id="-E31_to_E29" edges="-E31 E29" />
    <route id="-E31_to_-E22" edges="-E31 -E22" />
    <route id="-E32_to_E31" edges="-E32 E31" />
    <route id="-E32_to_E33" edges="-E32 E33" />
    <route id="-E33_to_E32" edges="-E33 E32" />
    <route id="E22_to_E29" edges="E22 E29" />
    <vehicles id="-E33_to_E32_0" type="standard_car" route="-E33_to_E32" depart="28.0" departLane="random" />
    <vehicles id="-E32_to_E33_1" type="standard_car" route="-E32_to_E33" depart="45.0" departLane="random" />
    <vehicle id="-E29_to_E31_2" type="standard_car" route="-E29_to_E31" depart="62.0" departLane="random" />
    <vehicles id="-E33_to_E32_3" type="standard_car" route="-E33_to_E32" depart="75.0" departLane="random" />
    <vehicles id="-E33_to_E32_4" type="standard_car" route="-E33_to_E32" depart="82.0" departLane="random" />
    <vehicles id="-E33_to_E32_5" type="standard_car" route="-E33_to_E32" depart="86.0" departLane="random" />
    <vehicle id="-E32_to_E31_6" type="standard_car" route="-E32_to_E31" depart="107.0" departLane="random" />
    <vehicles id="-E32_to_E33_7" type="standard_car" route="-E32_to_E33" depart="129.0" departLane="random" />
    <vehicles id="-E29_to_-E22_8" type="standard_car" route="-E29_to_-E22" depart="130.0" departLane="random" />
    <vehicles id="E22_to_E29_9" type="standard_car" route="E22_to_E29" depart="132.0" departLane="random" />
    <vehicles id="-E29_to_-E22_10" type="standard_car" route="-E29_to_-E22" depart="133.0" departLane="random" />
    <vehicle id="-E31_to_-E22_11" type="standard_car" route="-E31_to_-E22" depart="139.0" departLane="random" />
    <vehicles id="E22_to_E29_12" type="standard_car" route="E22_to_E29" depart="150.0" departLane="random" />
    <vehicles id="-E29_to_-E22_13" type="standard_car" route="-E29_to_-E22" depart="154.0" departLane="random" />
    <vehicle id="-E31_to_-E22_14" type="standard_car" route="-E31_to_-E22" depart="154.0" departLane="random" />
    <vehicles id="-E33_to_E32_15" type="standard_car" route="-E33_to_E32" depart="157.0" departLane="random" />
    <vehicle id="-E29_to_E31_16" type="standard_car" route="-E29_to_E31" depart="164.0" departLane="random" />
    <vehicle id="-E31_to_E29_17" type="standard_car" route="-E31_to_E29" depart="165.0" departLane="random" />
    <vehicles id="-E32_to_E33_18" type="standard_car" route="-E32_to_E33" depart="167.0" departLane="random" />
    <vehicles id="-E33_to_E32_19" type="standard_car" route="-E33_to_E32" depart="167.0" departLane="random" />
    <vehicles id="-E29_to_-E22_20" type="standard_car" route="-E29_to_-E22" depart="171.0" departLane="random" />
    <vehicles id="-E33_to_E32_21" type="standard_car" route="-E33_to_E32" depart="172.0" departLane="random" />
    <vehicle id="-E29_to_E31_22" type="standard_car" route="-E29_to_E31" depart="173.0" departLane="random" />
    <vehicles id="E22_to_E29_23" type="standard_car" route="E22_to_E29" depart="188.0" departLane="random" />
    <vehicles id="-E33_to_E32_24" type="standard_car" route="-E33_to_E32" depart="190.0" departLane="random" />
    <vehicles id="-E32_to_E33_25" type="standard_car" route="-E32_to_E33" depart="193.0" departLane="random" />
    <vehicles id="-E32_to_E33_26" type="standard_car" route="-E32_to_E33" depart="206.0" departLane="random" />
    <vehicles id="-E32_to_E33_27" type="standard_car" route="-E32_to_E33" depart="207.0" departLane="random" />
    <vehicle id="-E31_to_E29_28" type="standard_car" route="-E31_to_E29" depart="209.0" departLane="random" />
    <vehicles id="-E33_to_E32_29" type="standard_car" route="-E33_to_E32" depart="210.0" departLane="random" />
    <vehicles id="E22_to_E29_30" type="standard_car" route="E22_to_E29" depart="216.0" departLane="random" />
    <vehicles id="-E29_to_-E22_31" type="standard_car" route="-E29_to_-E22" depart="220.0" departLane="random" />
    <vehicles id="-E32_to_E33_32" type="standard_car" route="-E32_to_E33" depart="221.0" departLane="random" />
    <vehicles id="E22_to_E29_33" type="standard_car" route="E22_to_E29" depart="228.0" departLane="random" />
    <vehicles id="-E33_to_E32_34" type="standard_car" route="-E33_to_E32" depart="230.0" departLane="random" />
    <vehicles id="-E29_to_-E22_35" type="standard_car" route="-E29_to_-E22" depart="238.0" departLane="random" />
    <vehicle id="-E31_to_-E22_36" type="standard_car" route="-E31_to_-E22" depart="240.0" departLane="random" />
    <vehicles id="-E29_to_-E22_37" type="standard_car" route="-E29_to_-E22" depart="241.0" departLane="random" />
    <vehicle id="-E31_to_E29_38" type="standard_car" route="-E31_to_E29" depart="242.0" departLane="random" />
    <vehicles id="E22_to_E29_39" type="standard_car" route="E22_to_E29" depart="251.0" departLane="random" />
    <vehicle id="-E29_to_E31_40" type="standard_car" route="-E29_to_E31" depart="256.0" departLane="random" />
    <vehicle id="-E32_to_E31_41" type="standard_car" route="-E32_to_E31" depart="260.0" departLane="random" />
    <vehicles id="-E33_to_E32_42" type="standard_car" route="-E33_to_E32" depart="263.0" departLane="random" />
    <vehicle id="-E31_to_E29_43" type="standard_car" route="-E31_to_E29" depart="268.0" departLane="random" />
    <vehicles id="-E32_to_E33_44" type="standard_car" route="-E32_to_E33" depart="270.0" departLane="random" />
    <vehicle id="-E31_to_E29_45" type="standard_car" route="-E31_to_E29" depart="281.0" departLane="random" />
    <vehicles id="-E29_to_-E22_46" type="standard_car" route="-E29_to_-E22" depart="284.0" departLane="random" />
    <vehicle id="-E29_to_E31_47" type="standard_car" route="-E29_to_E31" depart="286.0" departLane="random" />
    <vehicles id="-E29_to_-E22_48" type="standard_car" route="-E29_to_-E22" depart="290.0" departLane="random" />
    <vehicle id="-E31_to_-E22_49" type="standard_car" route="-E31_to_-E22" depart="290.0" departLane="random" />
    <vehicles id="-E33_to_E32_50" type="standard_car" route="-E33_to_E32" depart="293.0" departLane="random" />
    <vehicle id="-E31_to_-E22_51" type="standard_car" route="-E31_to_-E22" depart="294.0" departLane="random" />
    <vehicle id="-E31_to_-E22_52" type="standard_car" route="-E31_to_-E22" depart="295.0" departLane="random" />
    <vehicles id="E22_to_E29_53" type="standard_car" route="E22_to_E29" depart="297.0" departLane="random" />
    <vehicle id="-E31_to_-E22_54" type="standard_car" route="-E31_to_-E22" depart="298.0" departLane="random" />
    <vehicles id="-E29_to_-E22_55" type="standard_car" route="-E29_to_-E22" depart="299.0" departLane="random" />
    <vehicle id="-E31_to_-E22_56" type="standard_car" route="-E31_to_-E22" depart="301.0" departLane="random" />
    <vehicle id="-E29_to_E31_57" type="standard_car" route="-E29_to_E31" depart="305.0" departLane="random" />
    <vehicle id="-E29_to_E31_58" type="standard_car" route="-E29_to_E31" depart="305.0" departLane="random" />
    <vehicles id="-E33_to_E32_59" type="standard_car" route="-E33_to_E32" depart="307.0" departLane="random" />
    <vehicles id="E22_to_E29_60" type="standard_car" route="E22_to_E29" depart="307.0" departLane="random" />
    <vehicle id="-E31_to_E29_61" type="standard_car" route="-E31_to_E29" depart="309.0" departLane="random" />
    <vehicle id="-E31_to_-E22_62" type="standard_car" route="-E31_to_-E22" depart="309.0" departLane="random" />
    <vehicles id="E22_to_E29_63" type="standard_car" route="E22_to_E29" depart="312.0" departLane="random" />
    <vehicles id="E22_to_E29_64" type="standard_car" route="E22_to_E29" depart="313.0" departLane="random" />
    <vehicle id="-E29_to_E31_65" type="standard_car" route="-E29_to_E31" depart="314.0" departLane="random" />
    <vehicles id="-E32_to_E33_66" type="standard_car" route="-E32_to_E33" depart="317.0" departLane="random" />
    <vehicles id="-E29_to_-E22_67" type="standard_car" route="-E29_to_-E22" depart="319.0" departLane="random" />
    <vehicles id="-E33_to_E32_68" type="standard_car" route="-E33_to_E32" depart="321.0" departLane="random" />
    <vehicle id="-E29_to_E31_69" type="standard_car" route="-E29_to_E31" depart="321.0" departLane="random" />
    <vehicle id="-E31_to_-E22_70" type="standard_car" route="-E31_to_-E22" depart="321.0" departLane="random" />
    <vehicle id="-E31_to_-E22_71" type="standard_car" route="-E31_to_-E22" depart="323.0" departLane="random" />
    <vehicles id="-E32_to_E33_72" type="standard_car" route="-E32_to_E33" depart="325.0" departLane="random" />
    <vehicles id="-E33_to_E32_73" type="standard_car" route="-E33_to_E32" depart="326.0" departLane="random" />
    <vehicles id="-E32_to_E33_74" type="standard_car" route="-E32_to_E33" depart="336.0" departLane="random" />
    <vehicles id="-E33_to_E32_75" type="standard_car" route="-E33_to_E32" depart="338.0" departLane="random" />
    <vehicles id="E22_to_E29_76" type="standard_car" route="E22_to_E29" depart="340.0" departLane="random" />
    <vehicles id="E22_to_E29_77" type="standard_car" route="E22_to_E29" depart="345.0" departLane="random" />
    <vehicles id="-E33_to_E32_78" type="standard_car" route="-E33_to_E32" depart="348.0" departLane="random" />
    <vehicles id="-E33_to_E32_79" type="standard_car" route="-E33_to_E32" depart="349.0" departLane="random" />
    <vehicles id="E22_to_E29_80" type="standard_car" route="E22_to_E29" depart="350.0" departLane="random" />
    <vehicle id="-E31_to_E29_81" type="standard_car" route="-E31_to_E29" depart="354.0" departLane="random" />
    <vehicles id="E22_to_E29_82" type="standard_car" route="E22_to_E29" depart="358.0" departLane="random" />
    <vehicles id="E22_to_E29_83" type="standard_car" route="E22_to_E29" depart="362.0" departLane="random" />
    <vehicle id="-E31_to_-E22_84" type="standard_car" route="-E31_to_-E22" depart="367.0" departLane="random" />
    <vehicles id="-E33_to_E32_85" type="standard_car" route="-E33_to_E32" depart="368.0" departLane="random" />
    <vehicles id="-E32_to_E33_86" type="standard_car" route="-E32_to_E33" depart="370.0" departLane="random" />
    <vehicle id="-E31_to_-E22_87" type="standard_car" route="-E31_to_-E22" depart="377.0" departLane="random" />
    <vehicle id="-E29_to_E31_88" type="standard_car" route="-E29_to_E31" depart="381.0" departLane="random" />
    <vehicle id="-E31_to_E29_89" type="standard_car" route="-E31_to_E29" depart="382.0" departLane="random" />
    <vehicles id="E22_to_E29_90" type="standard_car" route="E22_to_E29" depart="383.0" departLane="random" />
    <vehicles id="-E29_to_-E22_91" type="standard_car" route="-E29_to_-E22" depart="384.0" departLane="random" />
    <vehicles id="-E33_to_E32_92" type="standard_car" route="-E33_to_E32" depart="384.0" departLane="random" />
    <vehicles id="-E29_to_-E22_93" type="standard_car" route="-E29_to_-E22" depart="384.0" departLane="random" />
    <vehicles id="E22_to_E29_94" type="standard_car" route="E22_to_E29" depart="385.0" departLane="random" />
    <vehicles id="E22_to_E29_95" type="standard_car" route="E22_to_E29" depart="385.0" departLane="random" />
    <vehicles id="-E33_to_E32_96" type="standard_car" route="-E33_to_E32" depart="389.0" departLane="random" />
    <vehicles id="-E29_to_-E22_97" type="standard_car" route="-E29_to_-E22" depart="389.0" departLane="random" />
    <vehicles id="-E32_to_E33_98" type="standard_car" route="-E32_to_E33" depart="390.0" departLane="random" />
    <vehicle id="-E31_to_E29_99" type="standard_car" route="-E31_to_E29" depart="390.0" departLane="random" />
    <vehicles id="-E33_to_E32_100" type="standard_car" route="-E33_to_E32" depart="390.0" departLane="random" />
    <vehicles id="E22_to_E29_101" type="standard_car" route="E22_to_E29" depart="394.0" departLane="random" />
    <vehicles id="-E32_to_E33_102" type="standard_car" route="-E32_to_E33" depart="394.0" departLane="random" />
    <vehicle id="-E32_to_E31_103" type="standard_car" route="-E32_to_E31" depart="396.0" departLane="random" />
    <vehicles id="-E33_to_E32_104" type="standard_car" route="-E33_to_E32" depart="399.0" departLane="random" />
    <vehicle id="-E32_to_E31_105" type="standard_car" route="-E32_to_E31" depart="401.0" departLane="random" />
    <vehicle id="-E31_to_E29_106" type="standard_car" route="-E31_to_E29" depart="404.0" departLane="random" />
    <vehicle id="-E32_to_E31_107" type="standard_car" route="-E32_to_E31" depart="404.0" departLane="random" />
    <vehicles id="E22_to_E29_108" type="standard_car" route="E22_to_E29" depart="405.0" departLane="random" />
    <vehicles id="E22_to_E29_109" type="standard_car" route="E22_to_E29" depart="409.0" departLane="random" />
    <vehicles id="-E33_to_E32_110" type="standard_car" route="-E33_to_E32" depart="410.0" departLane="random" />
    <vehicle id="-E32_to_E31_111" type="standard_car" route="-E32_to_E31" depart="411.0" departLane="random" />
    <vehicle id="-E29_to_E31_112" type="standard_car" route="-E29_to_E31" depart="413.0" departLane="random" />
    <vehicles id="E22_to_E29_113" type="standard_car" route="E22_to_E29" depart="414.0" departLane="random" />
    <vehicles id="-E33_to_E32_114" type="standard_car" route="-E33_to_E32" depart="420.0" departLane="random" />
    <vehicle id="-E32_to_E31_115" type="standard_car" route="-E32_to_E31" depart="421.0" departLane="random" />
    <vehicle id="-E31_to_E29_116" type="standard_car" route="-E31_to_E29" depart="421.0" departLane="random" />
    <vehicle id="-E32_to_E31_117" type="standard_car" route="-E32_to_E31" depart="421.0" departLane="random" />
    <vehicles id="E22_to_E29_118" type="standard_car" route="E22_to_E29" depart="421.0" departLane="random" />
    <vehicle id="-E31_to_E29_119" type="standard_car" route="-E31_to_E29" depart="424.0" departLane="random" />
    <vehicle id="-E32_to_E31_120" type="standard_car" route="-E32_to_E31" depart="424.0" departLane="random" />
    <vehicle id="-E31_to_E29_121" type="standard_car" route="-E31_to_E29" depart="424.0" departLane="random" />
    <vehicles id="-E32_to_E33_122" type="standard_car" route="-E32_to_E33" depart="424.0" departLane="random" />
    <vehicle id="-E32_to_E31_123" type="standard_car" route="-E32_to_E31" depart="424.0" departLane="random" />
    <vehicle id="-E31_to_E29_124" type="standard_car" route="-E31_to_E29" depart="426.0" departLane="random" />
    <vehicle id="-E29_to_E31_125" type="standard_car" route="-E29_to_E31" depart="427.0" departLane="random" />
    <vehicle id="-E31_to_E29_126" type="standard_car" route="-E31_to_E29" depart="429.0" departLane="random" />
    <vehicle id="-E31_to_-E22_127" type="standard_car" route="-E31_to_-E22" depart="429.0" departLane="random" />
    <vehicles id="-E29_to_-E22_128" type="standard_car" route="-E29_to_-E22" depart="436.0" departLane="random" />
    <vehicles id="-E29_to_-E22_129" type="standard_car" route="-E29_to_-E22" depart="446.0" departLane="random" />
    <vehicles id="-E33_to_E32_130" type="standard_car" route="-E33_to_E32" depart="446.0" departLane="random" />
    <vehicles id="-E29_to_-E22_131" type="standard_car" route="-E29_to_-E22" depart="450.0" departLane="random" />
    <vehicles id="-E33_to_E32_132" type="standard_car" route="-E33_to_E32" depart="450.0" departLane="random" />
    <vehicles id="-E32_to_E33_133" type="standard_car" route="-E32_to_E33" depart="451.0" departLane="random" />
    <vehicle id="-E31_to_E29_134" type="standard_car" route="-E31_to_E29" depart="451.0" departLane="random" />
    <vehicle id="-E31_to_E29_135" type="standard_car" route="-E31_to_E29" depart="452.0" departLane="random" />
    <vehicle id="-E32_to_E31_136" type="standard_car" route="-E32_to_E31" depart="452.0" departLane="random" />
    <vehicles id="-E33_to_E32_137" type="standard_car" route="-E33_to_E32" depart="454.0" departLane="random" />
    <vehicle id="-E31_to_E29_138" type="standard_car" route="-E31_to_E29" depart="454.0" departLane="random" />
    <vehicle id="-E32_to_E31_139" type="standard_car" route="-E32_to_E31" depart="458.0" departLane="random" />
    <vehicles id="E22_to_E29_140" type="standard_car" route="E22_to_E29" depart="460.0" departLane="random" />
    <vehicle id="-E29_to_E31_141" type="standard_car" route="-E29_to_E31" depart="463.0" departLane="random" />
    <vehicles id="-E33_to_E32_142" type="standard_car" route="-E33_to_E32" depart="464.0" departLane="random" />
    <vehicle id="-E32_to_E31_143" type="standard_car" route="-E32_to_E31" depart="467.0" departLane="random" />
    <vehicles id="-E29_to_-E22_144" type="standard_car" route="-E29_to_-E22" depart="467.0" departLane="random" />
    <vehicle id="-E31_to_E29_145" type="standard_car" route="-E31_to_E29" depart="469.0" departLane="random" />
    <vehicles id="E22_to_E29_146" type="standard_car" route="E22_to_E29" depart="472.0" departLane="random" />
    <vehicles id="-E33_to_E32_147" type="standard_car" route="-E33_to_E32" depart="475.0" departLane="random" />
    <vehicle id="-E31_to_-E22_148" type="standard_car" route="-E31_to_-E22" depart="478.0" departLane="random" />
    <vehicles id="-E32_to_E33_149" type="standard_car" route="-E32_to_E33" depart="480.0" departLane="random" />
    <vehicles id="-E33_to_E32_150" type="standard_car" route="-E33_to_E32" depart="480.0" departLane="random" />
    <vehicles id="E22_to_E29_151" type="standard_car" route="E22_to_E29" depart="480.0" departLane="random" />
    <vehicles id="E22_to_E29_152" type="standard_car" route="E22_to_E29" depart="481.0" departLane="random" />
    <vehicles id="-E33_to_E32_153" type="standard_car" route="-E33_to_E32" depart="483.0" departLane="random" />
    <vehicles id="-E29_to_-E22_154" type="standard_car" route="-E29_to_-E22" depart="485.0" departLane="random" />
    <vehicles id="-E32_to_E33_155" type="standard_car" route="-E32_to_E33" depart="488.0" departLane="random" />
    <vehicles id="E22_to_E29_156" type="standard_car" route="E22_to_E29" depart="490.0" departLane="random" />
    <vehicles id="-E29_to_-E22_157" type="standard_car" route="-E29_to_-E22" depart="495.0" departLane="random" />
    <vehicles id="-E29_to_-E22_158" type="standard_car" route="-E29_to_-E22" depart="499.0" departLane="random" />
    <vehicles id="-E29_to_-E22_159" type="standard_car" route="-E29_to_-E22" depart="500.0" departLane="random" />
    <vehicles id="-E29_to_-E22_160" type="standard_car" route="-E29_to_-E22" depart="500.0" departLane="random" />
    <vehicle id="-E31_to_-E22_161" type="standard_car" route="-E31_to_-E22" depart="501.0" departLane="random" />
    <vehicles id="-E29_to_-E22_162" type="standard_car" route="-E29_to_-E22" depart="501.0" departLane="random" />
    <vehicles id="-E29_to_-E22_163" type="standard_car" route="-E29_to_-E22" depart="502.0" departLane="random" />
    <vehicles id="E22_to_E29_164" type="standard_car" route="E22_to_E29" depart="502.0" departLane="random" />
    <vehicles id="-E33_to_E32_165" type="standard_car" route="-E33_to_E32" depart="503.0" departLane="random" />
    <vehicles id="E22_to_E29_166" type="standard_car" route="E22_to_E29" depart="505.0" departLane="random" />
    <vehicle id="-E31_to_E29_167" type="standard_car" route="-E31_to_E29" depart="505.0" departLane="random" />
    <vehicles id="-E33_to_E32_168" type="standard_car" route="-E33_to_E32" depart="505.0" departLane="random" />
    <vehicle id="-E31_to_E29_169" type="standard_car" route="-E31_to_E29" depart="506.0" departLane="random" />
    <vehicles id="-E32_to_E33_170" type="standard_car" route="-E32_to_E33" depart="509.0" departLane="random" />
    <vehicle id="-E29_to_E31_171" type="standard_car" route="-E29_to_E31" depart="511.0" departLane="random" />
    <vehicle id="-E29_to_E31_172" type="standard_car" route="-E29_to_E31" depart="516.0" departLane="random" />
    <vehicles id="-E32_to_E33_173" type="standard_car" route="-E32_to_E33" depart="521.0" departLane="random" />
    <vehicle id="-E29_to_E31_174" type="standard_car" route="-E29_to_E31" depart="521.0" departLane="random" />
    <vehicles id="E22_to_E29_175" type="standard_car" route="E22_to_E29" depart="523.0" departLane="random" />
    <vehicle id="-E31_to_E29_176" type="standard_car" route="-E31_to_E29" depart="526.0" departLane="random" />
    <vehicle id="-E29_to_E31_177" type="standard_car" route="-E29_to_E31" depart="526.0" departLane="random" />
    <vehicles id="E22_to_E29_178" type="standard_car" route="E22_to_E29" depart="527.0" departLane="random" />
    <vehicles id="-E29_to_-E22_179" type="standard_car" route="-E29_to_-E22" depart="529.0" departLane="random" />
    <vehicles id="E22_to_E29_180" type="standard_car" route="E22_to_E29" depart="530.0" departLane="random" />
    <vehicle id="-E31_to_-E22_181" type="standard_car" route="-E31_to_-E22" depart="532.0" departLane="random" />
    <vehicles id="-E32_to_E33_182" type="standard_car" route="-E32_to_E33" depart="534.0" departLane="random" />
    <vehicles id="E22_to_E29_183" type="standard_car" route="E22_to_E29" depart="534.0" departLane="random" />
    <vehicle id="-E31_to_E29_184" type="standard_car" route="-E31_to_E29" depart="536.0" departLane="random" />
    <vehicles id="E22_to_E29_185" type="standard_car" route="E22_to_E29" depart="540.0" departLane="random" />
    <vehicles id="-E33_to_E32_186" type="standard_car" route="-E33_to_E32" depart="540.0" departLane="random" />
    <vehicles id="-E33_to_E32_187" type="standard_car" route="-E33_to_E32" depart="540.0" departLane="random" />
    <vehicles id="E22_to_E29_188" type="standard_car" route="E22_to_E29" depart="543.0" departLane="random" />
    <vehicles id="-E29_to_-E22_189" type="standard_car" route="-E29_to_-E22" depart="544.0" departLane="random" />
    <vehicle id="-E31_to_-E22_190" type="standard_car" route="-E31_to_-E22" depart="544.0" departLane="random" />
    <vehicle id="-E29_to_E31_191" type="standard_car" route="-E29_to_E31" depart="545.0" departLane="random" />
    <vehicles id="-E32_to_E33_192" type="standard_car" route="-E32_to_E33" depart="546.0" departLane="random" />
    <vehicles id="-E32_to_E33_193" type="standard_car" route="-E32_to_E33" depart="551.0" departLane="random" />
    <vehicle id="-E29_to_E31_194" type="standard_car" route="-E29_to_E31" depart="552.0" departLane="random" />
    <vehicles id="-E29_to_-E22_195" type="standard_car" route="-E29_to_-E22" depart="561.0" departLane="random" />
    <vehicles id="-E32_to_E33_196" type="standard_car" route="-E32_to_E33" depart="562.0" departLane="random" />
    <vehicles id="-E32_to_E33_197" type="standard_car" route="-E32_to_E33" depart="562.0" departLane="random" />
    <vehicles id="-E33_to_E32_198" type="standard_car" route="-E33_to_E32" depart="566.0" departLane="random" />
    <vehicle id="-E32_to_E31_199" type="standard_car" route="-E32_to_E31" depart="567.0" departLane="random" />
    <vehicle id="-E32_to_E31_200" type="standard_car" route="-E32_to_E31" depart="575.0" departLane="random" />
    <vehicle id="-E31_to_E29_201" type="standard_car" route="-E31_to_E29" depart="579.0" departLane="random" />
    <vehicle id="-E29_to_E31_202" type="standard_car" route="-E29_to_E31" depart="580.0" departLane="random" />
    <vehicles id="-E33_to_E32_203" type="standard_car" route="-E33_to_E32" depart="581.0" departLane="random" />
    <vehicle id="-E31_to_-E22_204" type="standard_car" route="-E31_to_-E22" depart="582.0" departLane="random" />
    <vehicle id="-E29_to_E31_205" type="standard_car" route="-E29_to_E31" depart="582.0" departLane="random" />
    <vehicle id="-E32_to_E31_206" type="standard_car" route="-E32_to_E31" depart="583.0" departLane="random" />
    <vehicles id="-E33_to_E32_207" type="standard_car" route="-E33_to_E32" depart="585.0" departLane="random" />
    <vehicles id="E22_to_E29_208" type="standard_car" route="E22_to_E29" depart="586.0" departLane="random" />
    <vehicles id="-E33_to_E32_209" type="standard_car" route="-E33_to_E32" depart="588.0" departLane="random" />
    <vehicle id="-E31_to_-E22_210" type="standard_car" route="-E31_to_-E22" depart="589.0" departLane="random" />
    <vehicle id="-E31_to_E29_211" type="standard_car" route="-E31_to_E29" depart="591.0" departLane="random" />
    <vehicle id="-E31_to_E29_212" type="standard_car" route="-E31_to_E29" depart="591.0" departLane="random" />
    <vehicles id="E22_to_E29_213" type="standard_car" route="E22_to_E29" depart="593.0" departLane="random" />
    <vehicles id="-E32_to_E33_214" type="standard_car" route="-E32_to_E33" depart="593.0" departLane="random" />
    <vehicle id="-E31_to_E29_215" type="standard_car" route="-E31_to_E29" depart="593.0" departLane="random" />
    <vehicle id="-E32_to_E31_216" type="standard_car" route="-E32_to_E31" depart="595.0" departLane="random" />
    <vehicles id="-E32_to_E33_217" type="standard_car" route="-E32_to_E33" depart="598.0" departLane="random" />
    <vehicles id="E22_to_E29_218" type="standard_car" route="E22_to_E29" depart="600.0" departLane="random" />
    <vehicles id="-E32_to_E33_219" type="standard_car" route="-E32_to_E33" depart="600.0" departLane="random" />
    <vehicles id="-E33_to_E32_220" type="standard_car" route="-E33_to_E32" depart="603.0" departLane="random" />
    <vehicles id="E22_to_E29_221" type="standard_car" route="E22_to_E29" depart="603.0" departLane="random" />
    <vehicles id="E22_to_E29_222" type="standard_car" route="E22_to_E29" depart="604.0" departLane="random" />
    <vehicles id="-E29_to_-E22_223" type="standard_car" route="-E29_to_-E22" depart="605.0" departLane="random" />
    <vehicle id="-E31_to_E29_224" type="standard_car" route="-E31_to_E29" depart="609.0" departLane="random" />
    <vehicles id="-E32_to_E33_225" type="standard_car" route="-E32_to_E33" depart="610.0" departLane="random" />
    <vehicles id="E22_to_E29_226" type="standard_car" route="E22_to_E29" depart="610.0" departLane="random" />
    <vehicles id="E22_to_E29_227" type="standard_car" route="E22_to_E29" depart="611.0" departLane="random" />
    <vehicle id="-E32_to_E31_228" type="standard_car" route="-E32_to_E31" depart="613.0" departLane="random" />
    <vehicles id="-E33_to_E32_229" type="standard_car" route="-E33_to_E32" depart="616.0" departLane="random" />
    <vehicle id="-E32_to_E31_230" type="standard_car" route="-E32_to_E31" depart="617.0" departLane="random" />
    <vehicles id="-E33_to_E32_231" type="standard_car" route="-E33_to_E32" depart="617.0" departLane="random" />
    <vehicles id="-E33_to_E32_232" type="standard_car" route="-E33_to_E32" depart="618.0" departLane="random" />
    <vehicles id="E22_to_E29_233" type="standard_car" route="E22_to_E29" depart="619.0" departLane="random" />
    <vehicles id="-E29_to_-E22_234" type="standard_car" route="-E29_to_-E22" depart="625.0" departLane="random" />
    <vehicle id="-E31_to_E29_235" type="standard_car" route="-E31_to_E29" depart="625.0" departLane="random" />
    <vehicles id="-E32_to_E33_236" type="standard_car" route="-E32_to_E33" depart="625.0" departLane="random" />
    <vehicles id="-E29_to_-E22_237" type="standard_car" route="-E29_to_-E22" depart="626.0" departLane="random" />
    <vehicles id="-E29_to_-E22_238" type="standard_car" route="-E29_to_-E22" depart="629.0" departLane="random" />
    <vehicles id="-E32_to_E33_239" type="standard_car" route="-E32_to_E33" depart="630.0" departLane="random" />
    <vehicle id="-E31_to_-E22_240" type="standard_car" route="-E31_to_-E22" depart="631.0" departLane="random" />
    <vehicle id="-E31_to_-E22_241" type="standard_car" route="-E31_to_-E22" depart="631.0" departLane="random" />
    <vehicles id="-E33_to_E32_242" type="standard_car" route="-E33_to_E32" depart="632.0" departLane="random" />
    <vehicle id="-E31_to_-E22_243" type="standard_car" route="-E31_to_-E22" depart="632.0" departLane="random" />
    <vehicle id="-E32_to_E31_244" type="standard_car" route="-E32_to_E31" depart="635.0" departLane="random" />
    <vehicle id="-E31_to_-E22_245" type="standard_car" route="-E31_to_-E22" depart="636.0" departLane="random" />
    <vehicle id="-E31_to_E29_246" type="standard_car" route="-E31_to_E29" depart="637.0" departLane="random" />
    <vehicle id="-E31_to_-E22_247" type="standard_car" route="-E31_to_-E22" depart="638.0" departLane="random" />
    <vehicle id="-E29_to_E31_248" type="standard_car" route="-E29_to_E31" depart="638.0" departLane="random" />
    <vehicle id="-E31_to_E29_249" type="standard_car" route="-E31_to_E29" depart="640.0" departLane="random" />
    <vehicle id="-E29_to_E31_250" type="standard_car" route="-E29_to_E31" depart="640.0" departLane="random" />
    <vehicles id="E22_to_E29_251" type="standard_car" route="E22_to_E29" depart="641.0" departLane="random" />
    <vehicles id="-E29_to_-E22_252" type="standard_car" route="-E29_to_-E22" depart="642.0" departLane="random" />
    <vehicles id="-E29_to_-E22_253" type="standard_car" route="-E29_to_-E22" depart="643.0" departLane="random" />
    <vehicles id="E22_to_E29_254" type="standard_car" route="E22_to_E29" depart="644.0" departLane="random" />
    <vehicles id="-E32_to_E33_255" type="standard_car" route="-E32_to_E33" depart="647.0" departLane="random" />
    <vehicles id="-E29_to_-E22_256" type="standard_car" route="-E29_to_-E22" depart="648.0" departLane="random" />
    <vehicle id="-E31_to_E29_257" type="standard_car" route="-E31_to_E29" depart="649.0" departLane="random" />
    <vehicles id="-E29_to_-E22_258" type="standard_car" route="-E29_to_-E22" depart="649.0" departLane="random" />
    <vehicle id="-E29_to_E31_259" type="standard_car" route="-E29_to_E31" depart="649.0" departLane="random" />
    <vehicles id="-E32_to_E33_260" type="standard_car" route="-E32_to_E33" depart="650.0" departLane="random" />
    <vehicle id="-E32_to_E31_261" type="standard_car" route="-E32_to_E31" depart="654.0" departLane="random" />