<routes>
    <vType accel="0.8" id="standard_car" decel="4.5" length="5.0" minGap="2.5" maxSpeed="16.67" sigma="0.5" />
    
    <route id="-E11_to_-E18" edges="-E11 -E18" />
    <route id="-E11_to_E17" edges="-E11 E17" />
    <route id="-E11_to_E7" edges="-E11 E7" />
    <route id="-E17_to_E7" edges="-E17 E7" />
    <route id="-E17_to_E11" edges="-E17 E11" />
    <route id="-E17_to_-E18" edges="-E17 -E18" />
    <route id="E18_to_E17" edges="E18 E17" />
    <route id="E18_to_E7" edges="E18 E7" />
    <route id="E18_to_E11" edges="E18 E11" />
    <route id="E38_to_E11" edges="E38 E11" />
    <route id="E38_to_-E18" edges="E38 -E18" />
    <route id="E38_to_E17" edges="E38 E17" />
    <vehicle id="E38_to_E17_0" type="standard_car" route="E38_to_E17" depart="8.0" departLane="random" />
    <vehicle id="-E11_to_E17_1" type="standard_car" route="-E11_to_E17" depart="8.0" departLane="random" />
    <vehicle id="E38_to_-E18_2" type="standard_car" route="E38_to_-E18" depart="66.0" departLane="random" />
    <vehicle id="E18_to_E7_3" type="standard_car" route="E18_to_E7" depart="100.0" departLane="random" />
    <vehicle id="E18_to_E7_4" type="standard_car" route="E18_to_E7" depart="117.0" departLane="random" />
    <vehicle id="E18_to_E11_5" type="standard_car" route="E18_to_E11" depart="119.0" departLane="random" />
    <vehicle id="-E17_to_E11_6" type="standard_car" route="-E17_to_E11" depart="122.0" departLane="random" />
    <vehicle id="E38_to_-E18_7" type="standard_car" route="E38_to_-E18" depart="122.0" departLane="random" />
    <vehicle id="E38_to_-E18_8" type="standard_car" route="E38_to_-E18" depart="146.0" departLane="random" />
    <vehicle id="-E17_to_E7_9" type="standard_car" route="-E17_to_E7" depart="149.0" departLane="random" />
    <vehicle id="-E11_to_E17_10" type="standard_car" route="-E11_to_E17" depart="149.0" departLane="random" />
    <vehicle id="-E17_to_E11_11" type="standard_car" route="-E17_to_E11" depart="161.0" departLane="random" />
    <vehicle id="E38_to_-E18_12" type="standard_car" route="E38_to_-E18" depart="169.0" departLane="random" />
    <vehicle id="-E17_to_E11_13" type="standard_car" route="-E17_to_E11" depart="174.0" departLane="random" />
    <vehicle id="-E17_to_E11_14" type="standard_car" route="-E17_to_E11" depart="187.0" departLane="random" />
    <vehicle id="-E17_to_E11_15" type="standard_car" route="-E17_to_E11" depart="213.0" departLane="random" />
    <vehicle id="E18_to_E11_16" type="standard_car" route="E18_to_E11" depart="214.0" departLane="random" />
    <vehicle id="-E11_to_E17_17" type="standard_car" route="-E11_to_E17" depart="219.0" departLane="random" />
    <vehicle id="-E17_to_E11_18" type="standard_car" route="-E17_to_E11" depart="222.0" departLane="random" />
    <vehicle id="-E11_to_E17_19" type="standard_car" route="-E11_to_E17" depart="225.0" departLane="random" />
    <vehicle id="E18_to_E17_20" type="standard_car" route="E18_to_E17" depart="227.0" departLane="random" />
    <vehicle id="E38_to_-E18_21" type="standard_car" route="E38_to_-E18" depart="233.0" departLane="random" />
    <vehicle id="E18_to_E7_22" type="standard_car" route="E18_to_E7" depart="243.0" departLane="random" />
    <vehicle id="E38_to_-E18_23" type="standard_car" route="E38_to_-E18" depart="255.0" departLane="random" />
    <vehicle id="E38_to_-E18_24" type="standard_car" route="E38_to_-E18" depart="258.0" departLane="random" />
    <vehicle id="-E11_to_E17_25" type="standard_car" route="-E11_to_E17" depart="269.0" departLane="random" />
    <vehicle id="-E11_to_E17_26" type="standard_car" route="-E11_to_E17" depart="278.0" departLane="random" />
    <vehicle id="E18_to_E7_27" type="standard_car" route="E18_to_E7" depart="279.0" departLane="random" />
    <vehicle id="E38_to_E11_28" type="standard_car" route="E38_to_E11" depart="285.0" departLane="random" />
    <vehicle id="E38_to_-E18_29" type="standard_car" route="E38_to_-E18" depart="290.0" departLane="random" />
    <vehicle id="E18_to_E11_30" type="standard_car" route="E18_to_E11" depart="295.0" departLane="random" />
    <vehicle id="-E11_to_E17_31" type="standard_car" route="-E11_to_E17" depart="300.0" departLane="random" />
    <vehicle id="-E17_to_E7_32" type="standard_car" route="-E17_to_E7" depart="305.0" departLane="random" />
    <vehicle id="E18_to_E7_33" type="standard_car" route="E18_to_E7" depart="305.0" departLane="random" />
    <vehicle id="-E11_to_E17_34" type="standard_car" route="-E11_to_E17" depart="311.0" departLane="random" />
    <vehicle id="-E17_to_E11_35" type="standard_car" route="-E17_to_E11" depart="322.0" departLane="random" />
    <vehicle id="E18_to_E7_36" type="standard_car" route="E18_to_E7" depart="324.0" departLane="random" />
    <vehicle id="E38_to_E11_37" type="standard_car" route="E38_to_E11" depart="326.0" departLane="random" />
    <vehicle id="E38_to_E11_38" type="standard_car" route="E38_to_E11" depart="326.0" departLane="random" />
    <vehicle id="-E17_to_E11_39" type="standard_car" route="-E17_to_E11" depart="342.0" departLane="random" />
    <vehicle id="E18_to_E7_40" type="standard_car" route="E18_to_E7" depart="347.0" departLane="random" />
    <vehicle id="E38_to_E17_41" type="standard_car" route="E38_to_E17" depart="353.0" departLane="random" />
    <vehicle id="-E17_to_E11_42" type="standard_car" route="-E17_to_E11" depart="355.0" departLane="random" />
    <vehicle id="E38_to_-E18_43" type="standard_car" route="E38_to_-E18" depart="356.0" departLane="random" />
    <vehicle id="E18_to_E7_44" type="standard_car" route="E18_to_E7" depart="357.0" departLane="random" />
    <vehicle id="E38_to_-E18_45" type="standard_car" route="E38_to_-E18" depart="360.0" departLane="random" />
    <vehicle id="-E17_to_E7_46" type="standard_car" route="-E17_to_E7" depart="361.0" departLane="random" />
    <vehicle id="E38_to_-E18_47" type="standard_car" route="E38_to_-E18" depart="363.0" departLane="random" />
    <vehicle id="-E11_to_E17_48" type="standard_car" route="-E11_to_E17" depart="364.0" departLane="random" />
    <vehicle id="E18_to_E7_49" type="standard_car" route="E18_to_E7" depart="372.0" departLane="random" />
    <vehicle id="E38_to_-E18_50" type="standard_car" route="E38_to_-E18" depart="372.0" departLane="random" />
    <vehicle id="-E17_to_E11_51" type="standard_car" route="-E17_to_E11" depart="372.0" departLane="random" />
    <vehicle id="-E11_to_E17_52" type="standard_car" route="-E11_to_E17" depart="373.0" departLane="random" />
    <vehicle id="-E17_to_-E18_53" type="standard_car" route="-E17_to_-E18" depart="375.0" departLane="random" />
    <vehicle id="E38_to_-E18_54" type="standard_car" route="E38_to_-E18" depart="379.0" departLane="random" />
    <vehicle id="E18_to_E17_55" type="standard_car" route="E18_to_E17" depart="380.0" departLane="random" />
    <vehicle id="E38_to_-E18_56" type="standard_car" route="E38_to_-E18" depart="390.0" departLane="random" />
    <vehicle id="-E11_to_E17_57" type="standard_car" route="-E11_to_E17" depart="394.0" departLane="random" />
    <vehicle id="E38_to_-E18_58" type="standard_car" route="E38_to_-E18" depart="394.0" departLane="random" />
    <vehicle id="-E17_to_E11_59" type="standard_car" route="-E17_to_E11" depart="396.0" departLane="random" />
    <vehicle id="-E11_to_E17_60" type="standard_car" route="-E11_to_E17" depart="400.0" departLane="random" />
    <vehicle id="E38_to_E17_61" type="standard_car" route="E38_to_E17" depart="402.0" departLane="random" />
    <vehicle id="E18_to_E7_62" type="standard_car" route="E18_to_E7" depart="403.0" departLane="random" />
    <vehicle id="E38_to_-E18_63" type="standard_car" route="E38_to_-E18" depart="404.0" departLane="random" />
    <vehicle id="-E17_to_-E18_64" type="standard_car" route="-E17_to_-E18" depart="409.0" departLane="random" />
    <vehicle id="E38_to_-E18_65" type="standard_car" route="E38_to_-E18" depart="410.0" departLane="random" />
    <vehicle id="-E17_to_E7_66" type="standard_car" route="-E17_to_E7" depart="412.0" departLane="random" />
    <vehicle id="E38_to_-E18_67" type="standard_car" route="E38_to_-E18" depart="414.0" departLane="random" />
    <vehicle id="-E17_to_E11_68" type="standard_car" route="-E17_to_E11" depart="416.0" departLane="random" />
    <vehicle id="E38_to_-E18_69" type="standard_car" route="E38_to_-E18" depart="421.0" departLane="random" />
    <vehicle id="E18_to_E7_70" type="standard_car" route="E18_to_E7" depart="422.0" departLane="random" />
    <vehicle id="E38_to_-E18_71" type="standard_car" route="E38_to_-E18" depart="427.0" departLane="random" />
    <vehicle id="E18_to_E7_72" type="standard_car" route="E18_to_E7" depart="438.0" departLane="random" />
    <vehicle id="E18_to_E7_73" type="standard_car" route="E18_to_E7" depart="442.0" departLane="random" />
    <vehicle id="-E11_to_-E18_74" type="standard_car" route="-E11_to_-E18" depart="442.0" departLane="random" />
    <vehicle id="-E11_to_E17_75" type="standard_car" route="-E11_to_E17" depart="443.0" departLane="random" />
    <vehicle id="E38_to_E17_76" type="standard_car" route="E38_to_E17" depart="449.0" departLane="random" />
    <vehicle id="E38_to_E11_77" type="standard_car" route="E38_to_E11" depart="459.0" departLane="random" />
    <vehicle id="-E11_to_E17_78" type="standard_car" route="-E11_to_E17" depart="461.0" departLane="random" />
    <vehicle id="-E11_to_E7_79" type="standard_car" route="-E11_to_E7" depart="463.0" departLane="random" />
    <vehicle id="-E17_to_E11_80" type="standard_car" route="-E17_to_E11" depart="469.0" departLane="random" />
    <vehicle id="-E11_to_E17_81" type="standard_car" route="-E11_to_E17" depart="470.0" departLane="random" />
    <vehicle id="-E11_to_E17_82" type="standard_car" route="-E11_to_E17" depart="472.0" departLane="random" />
    <vehicle id="-E11_to_E17_83" type="standard_car" route="-E11_to_E17" depart="480.0" departLane="random" />
    <vehicle id="-E17_to_E11_84" type="standard_car" route="-E17_to_E11" depart="494.0" departLane="random" />
    <vehicle id="E38_to_-E18_85" type="standard_car" route="E38_to_-E18" depart="494.0" departLane="random" />
    <vehicle id="E18_to_E7_86" type="standard_car" route="E18_to_E7" depart="495.0" departLane="random" />
    <vehicle id="-E17_to_E11_87" type="standard_car" route="-E17_to_E11" depart="502.0" departLane="random" />
    <vehicle id="E18_to_E11_88" type="standard_car" route="E18_to_E11" depart="502.0" departLane="random" />
    <vehicle id="-E17_to_E7_89" type="standard_car" route="-E17_to_E7" depart="503.0" departLane="random" />
    <vehicle id="-E11_to_-E18_90" type="standard_car" route="-E11_to_-E18" depart="505.0" departLane="random" />
    <vehicle id="-E17_to_E7_91" type="standard_car" route="-E17_to_E7" depart="507.0" departLane="random" />
    <vehicle id="-E11_to_E17_92" type="standard_car" route="-E11_to_E17" depart="508.0" departLane="random" />
    <vehicle id="E38_to_-E18_93" type="standard_car" route="E38_to_-E18" depart="508.0" departLane="random" />
    <vehicle id="E18_to_E7_94" type="standard_car" route="E18_to_E7" depart="509.0" departLane="random" />
    <vehicle id="-E17_to_-E18_95" type="standard_car" route="-E17_to_-E18" depart="509.0" departLane="random" />
    <vehicle id="-E11_to_E17_96" type="standard_car" route="-E11_to_E17" depart="510.0" departLane="random" />
    <vehicle id="E38_to_-E18_97" type="standard_car" route="E38_to_-E18" depart="512.0" departLane="random" />
    <vehicle id="E38_to_-E18_98" type="standard_car" route="E38_to_-E18" depart="512.0" departLane="random" />
    <vehicle id="-E11_to_E17_99" type="standard_car" route="-E11_to_E17" depart="515.0" departLane="random" />
    <vehicle id="-E17_to_E11_100" type="standard_car" route="-E17_to_E11" depart="517.0" departLane="random" />
    <vehicle id="-E11_to_E17_101" type="standard_car" route="-E11_to_E17" depart="518.0" departLane="random" />
    <vehicle id="-E11_to_E17_102" type="standard_car" route="-E11_to_E17" depart="519.0" departLane="random" />
    <vehicle id="-E17_to_E7_103" type="standard_car" route="-E17_to_E7" depart="524.0" departLane="random" />
    <vehicle id="-E11_to_E17_104" type="standard_car" route="-E11_to_E17" depart="531.0" departLane="random" />
    <vehicle id="E38_to_-E18_105" type="standard_car" route="E38_to_-E18" depart="532.0" departLane="random" />
    <vehicle id="-E11_to_E17_106" type="standard_car" route="-E11_to_E17" depart="533.0" departLane="random" />
    <vehicle id="E18_to_E7_107" type="standard_car" route="E18_to_E7" depart="539.0" departLane="random" />
    <vehicle id="-E17_to_E11_108" type="standard_car" route="-E17_to_E11" depart="541.0" departLane="random" />
    <vehicle id="-E11_to_E7_109" type="standard_car" route="-E11_to_E7" depart="542.0" departLane="random" />
    <vehicle id="E38_to_-E18_110" type="standard_car" route="E38_to_-E18" depart="548.0" departLane="random" />
    <vehicle id="-E17_to_E7_111" type="standard_car" route="-E17_to_E7" depart="551.0" departLane="random" />
    <vehicle id="-E17_to_E11_112" type="standard_car" route="-E17_to_E11" depart="551.0" departLane="random" />
    <vehicle id="-E11_to_E17_113" type="standard_car" route="-E11_to_E17" depart="552.0" departLane="random" />
    <vehicle id="-E11_to_E17_114" type="standard_car" route="-E11_to_E17" depart="560.0" departLane="random" />
    <vehicle id="E38_to_E17_115" type="standard_car" route="E38_to_E17" depart="561.0" departLane="random" />
    <vehicle id="E18_to_E11_116" type="standard_car" route="E18_to_E11" depart="562.0" departLane="random" />
    <vehicle id="E38_to_E17_117" type="standard_car" route="E38_to_E17" depart="564.0" departLane="random" />
    <vehicle id="-E17_to_E11_118" type="standard_car" route="-E17_to_E11" depart="567.0" departLane="random" />
    <vehicle id="E38_to_-E18_119" type="standard_car" route="E38_to_-E18" depart="568.0" departLane="random" />
    <vehicle id="-E17_to_-E18_120" type="standard_car" route="-E17_to_-E18" depart="568.0" departLane="random" />
    <vehicle id="-E17_to_E11_121" type="standard_car" route="-E17_to_E11" depart="569.0" departLane="random" />
    <vehicle id="E18_to_E7_122" type="standard_car" route="E18_to_E7" depart="571.0" departLane="random" />
    <vehicle id="E18_to_E7_123" type="standard_car" route="E18_to_E7" depart="571.0" departLane="random" />
    <vehicle id="E38_to_E17_124" type="standard_car" route="E38_to_E17" depart="575.0" departLane="random" />
    <vehicle id="-E17_to_E11_125" type="standard_car" route="-E17_to_E11" depart="575.0" departLane="random" />
    <vehicle id="-E17_to_E11_126" type="standard_car" route="-E17_to_E11" depart="581.0" departLane="random" />
    <vehicle id="-E17_to_E11_127" type="standard_car" route="-E17_to_E11" depart="582.0" departLane="random" />
    <vehicle id="-E17_to_E11_128" type="standard_car" route="-E17_to_E11" depart="585.0" departLane="random" />
    <vehicle id="-E17_to_E11_129" type="standard_car" route="-E17_to_E11" depart="588.0" departLane="random" />
    <vehicle id="-E11_to_E17_130" type="standard_car" route="-E11_to_E17" depart="588.0" departLane="random" />
    <vehicle id="E18_to_E7_131" type="standard_car" route="E18_to_E7" depart="589.0" departLane="random" />
    <vehicle id="E18_to_E17_132" type="standard_car" route="E18_to_E17" depart="589.0" departLane="random" />
    <vehicle id="E38_to_-E18_133" type="standard_car" route="E38_to_-E18" depart="595.0" departLane="random" />
    <vehicle id="-E11_to_E17_134" type="standard_car" route="-E11_to_E17" depart="596.0" departLane="random" />
    <vehicle id="-E11_to_E7_135" type="standard_car" route="-E11_to_E7" depart="597.0" departLane="random" />
    <vehicle id="-E17_to_E11_136" type="standard_car" route="-E17_to_E11" depart="599.0" departLane="random" />
    <vehicle id="E18_to_E17_137" type="standard_car" route="E18_to_E17" depart="601.0" departLane="random" />
    <vehicle id="E38_to_-E18_138" type="standard_car" route="E38_to_-E18" depart="602.0" departLane="random" />
    <vehicle id="-E11_to_E17_139" type="standard_car" route="-E11_to_E17" depart="602.0" departLane="random" />
    <vehicle id="E38_to_E17_140" type="standard_car" route="E38_to_E17" depart="602.0" departLane="random" />
    <vehicle id="E18_to_E7_141" type="standard_car" route="E18_to_E7" depart="604.0" departLane="random" />
    <vehicle id="-E17_to_-E18_142" type="standard_car" route="-E17_to_-E18" depart="606.0" departLane="random" />
    <vehicle id="E18_to_E11_143" type="standard_car" route="E18_to_E11" depart="611.0" departLane="random" />
    <vehicle id="-E17_to_E7_144" type="standard_car" route="-E17_to_E7" depart="612.0" departLane="random" />
    <vehicle id="-E11_to_E7_145" type="standard_car" route="-E11_to_E7" depart="612.0" departLane="random" />
    <vehicle id="-E17_to_E7_146" type="standard_car" route="-E17_to_E7" depart="614.0" departLane="random" />
    <vehicle id="-E17_to_E11_147" type="standard_car" route="-E17_to_E11" depart="615.0" departLane="random" />
    <vehicle id="-E17_to_E11_148" type="standard_car" route="-E17_to_E11" depart="618.0" departLane="random" />
    <vehicle id="E18_to_E7_149" type="standard_car" route="E18_to_E7" depart="619.0" departLane="random" />
    <vehicle id="E38_to_E11_150" type="standard_car" route="E38_to_E11" depart="622.0" departLane="random" />
    <vehicle id="E18_to_E17_151" type="standard_car" route="E18_to_E17" depart="622.0" departLane="random" />
    <vehicle id="-E17_to_-E18_152" type="standard_car" route="-E17_to_-E18" depart="624.0" departLane="random" />
    <vehicle id="E18_to_E7_153" type="standard_car" route="E18_to_E7" depart="626.0" departLane="random" />
    <vehicle id="-E17_to_-E18_154" type="standard_car" route="-E17_to_-E18" depart="627.0" departLane="random" />
    <vehicle id="E18_to_E7_155" type="standard_car" route="E18_to_E7" depart="631.0" departLane="random" />
    <vehicle id="-E17_to_E11_156" type="standard_car" route="-E17_to_E11" depart="640.0" departLane="random" />
    <vehicle id="-E11_to_E7_157" type="standard_car" route="-E11_to_E7" depart="642.0" departLane="random" />
    <vehicle id="-E17_to_-E18_158" type="standard_car" route="-E17_to_-E18" depart="643.0" departLane="random" />
    <vehicle id="E18_to_E7_159" type="standard_car" route="E18_to_E7" depart="647.0" departLane="random" />
    <vehicle id="-E17_to_E11_160" type="standard_car" route="-E17_to_E11" depart="647.0" departLane="random" />
    <vehicle id="E38_to_-E18_161" type="standard_car" route="E38_to_-E18" depart="647.0" departLane="random" />
    <vehicle id="-E17_to_E11_162" type="standard_car" route="-E17_to_E11" depart="647.0" departLane="random" />
    <vehicle id="-E11_to_-E18_163" type="standard_car" route="-E11_to_-E18" depart="652.0" departLane="random" />
    <vehicle id="E18_to_E7_164" type="standard_car" route="E18_to_E7" depart="656.0" departLane="random" />
    <vehicle id="E18_to_E7_165" type="standard_car" route="E18_to_E7" depart="659.0" departLane="random" />
    <vehicle id="-E17_to_E11_166" type="standard_car" route="-E17_to_E11" depart="660.0" departLane="random" />
    <vehicle id="-E11_to_-E18_167" type="standard_car" route="-E11_to_-E18" depart="663.0" departLane="random" />
    <vehicle id="E18_to_E7_168" type="standard_car" route="E18_to_E7" depart="663.0" departLane="random" />
    <vehicle id="E18_to_E7_169" type="standard_car" route="E18_to_E7" depart="664.0" departLane="random" />
    <vehicle id="-E17_to_E11_170" type="standard_car" route="-E17_to_E11" depart="665.0" departLane="random" />
    <vehicle id="E38_to_-E18_171" type="standard_car" route="E38_to_-E18" depart="666.0" departLane="random" />
    <vehicle id="E18_to_E7_172" type="standard_car" route="E18_to_E7" depart="669.0" departLane="random" />
    <vehicle id="E18_to_E17_173" type="standard_car" route="E18_to_E17" depart="678.0" departLane="random" />
    <vehicle id="-E11_to_E17_174" type="standard_car" route="-E11_to_E17" depart="678.0" departLane="random" />
    <vehicle id="-E17_to_-E18_175" type="standard_car" route="-E17_to_-E18" depart="679.0" departLane="random" />
    <vehicle id="E18_to_E7_176" type="standard_car" route="E18_to_E7" depart="680.0" departLane="random" />
    <vehicle id="-E17_to_E11_177" type="standard_car" route="-E17_to_E11" depart="680.0" departLane="random" />
    <vehicle id="-E11_to_E17_178" type="standard_car" route="-E11_to_E17" depart="681.0" departLane="random" />
    <vehicle id="-E17_to_-E18_179" type="standard_car" route="-E17_to_-E18" depart="681.0" departLane="random" />
    <vehicle id="-E11_to_E17_180" type="standard_car" route="-E11_to_E17" depart="684.0" departLane="random" />
    <vehicle id="E38_to_E17_181" type="standard_car" route="E38_to_E17" depart="684.0" departLane="random" />
    <vehicle id="-E11_to_E17_182" type="standard_car" route="-E11_to_E17" depart="686.0" departLane="random" />
    <vehicle id="E18_to_E7_183" type="standard_car" route="E18_to_E7" depart="686.0" departLane="random" />
    <vehicle id="E38_to_-E18_184" type="standard_car" route="E38_to_-E18" depart="687.0" departLane="random" />
    <vehicle id="-E17_to_E11_185" type="standard_car" route="-E17_to_E11" depart="687.0" departLane="random" />
    <vehicle id="E18_to_E7_186" type="standard_car" route="E18_to_E7" depart="695.0" departLane="random" />
    <vehicle id="E18_to_E7_187" type="standard_car" route="E18_to_E7" depart="700.0" departLane="random" />
    <vehicle id="E38_to_E17_188" type="standard_car" route="E38_to_E17" depart="707.0" departLane="random" />
    <vehicle id="-E17_to_E11_189" type="standard_car" route="-E17_to_E11" depart="707.0" departLane="random" />
    <vehicle id="-E17_to_-E18_190" type="standard_car" route="-E17_to_-E18" depart="710.0" departLane="random" />
    <vehicle id="-E11_to_E7_191" type="standard_car" route="-E11_to_E7" depart="710.0" departLane="random" />
    <vehicle id="-E17_to_E11_192" type="standard_car" route="-E17_to_E11" depart="713.0" departLane="random" />
    <vehicle id="-E17_to_E11_193" type="standard_car" route="-E17_to_E11" depart="715.0" departLane="random" />
    <vehicle id="-E17_to_E11_194" type="standard_car" route="-E17_to_E11" depart="715.0" departLane="random" />
    <vehicle id="-E11_to_-E18_195" type="standard_car" route="-E11_to_-E18" depart="715.0" departLane="random" />
    <vehicle id="E38_to_-E18_196" type="standard_car" route="E38_to_-E18" depart="716.0" departLane="random" />
    <vehicle id="-E17_to_E11_197" type="standard_car" route="-E17_to_E11" depart="717.0" departLane="random" />
    <vehicle id="E18_to_E7_198" type="standard_car" route="E18_to_E7" depart="717.0" departLane="random" />
    <vehicle id="E18_to_E7_199" type="standard_car" route="E18_to_E7" depart="718.0" departLane="random" />
    <vehicle id="-E17_to_E11_200" type="standard_car" route="-E17_to_E11" depart="722.0" departLane="random" />
    <vehicle id="E18_to_E17_201" type="standard_car" route="E18_to_E17" depart="725.0" departLane="random" />
    <vehicle id="-E11_to_E17_202" type="standard_car" route="-E11_to_E17" depart="725.0" departLane="random" />
    <vehicle id="E38_to_-E18_203" type="standard_car" route="E38_to_-E18" depart="725.0" departLane="random" />
    <vehicle id="-E17_to_-E18_204" type="standard_car" route="-E17_to_-E18" depart="726.0" departLane="random" />
    <vehicle id="E38_to_-E18_205" type="standard_car" route="E38_to_-E18" depart="729.0" departLane="random" />
    <vehicle id="E38_to_-E18_206" type="standard_car" route="E38_to_-E18" depart="731.0" departLane="random" />
    <vehicle id="-E17_to_E11_207" type="standard_car" route="-E17_to_E11" depart="731.0" departLane="random" />
    <vehicle id="E38_to_-E18_208" type="standard_car" route="E38_to_-E18" depart="731.0" departLane="random" />
    <vehicle id="E18_to_E7_209" type="standard_car" route="E18_to_E7" depart="734.0" departLane="random" />
    <vehicle id="-E17_to_E7_210" type="standard_car" route="-E17_to_E7" depart="734.0" departLane="random" />
    <vehicle id="-E17_to_E11_211" type="standard_car" route="-E17_to_E11" depart="735.0" departLane="random" />
    <vehicle id="E38_to_-E18_212" type="standard_car" route="E38_to_-E18" depart="736.0" departLane="random" />
    <vehicle id="E38_to_-E18_213" type="standard_car" route="E38_to_-E18" depart="737.0" departLane="random" />
    <vehicle id="-E17_to_-E18_214" type="standard_car" route="-E17_to_-E18" depart="738.0" departLane="random" />
    <vehicle id="E18_to_E7_215" type="standard_car" route="E18_to_E7" depart="746.0" departLane="random" />
    <vehicle id="E18_to_E7_216" type="standard_car" route="E18_to_E7" depart="747.0" departLane="random" />
    <vehicle id="-E11_to_E17_217" type="standard_car" route="-E11_to_E17" depart="748.0" departLane="random" />
    <vehicle id="-E11_to_E17_218" type="standard_car" route="-E11_to_E17" depart="750.0" departLane="random" />
    <vehicle id="-E11_to_E17_219" type="standard_car" route="-E11_to_E17" depart="752.0" departLane="random" />
    <vehicle id="-E17_to_E11_220" type="standard_car" route="-E17_to_E11" depart="753.0" departLane="random" />
    <vehicle id="-E17_to_E11_221" type="standard_car" route="-E17_to_E11" depart="754.0" departLane="random" />
    <vehicle id="-E17_to_E7_222" type="standard_car" route="-E17_to_E7" depart="755.0" departLane="random" />
    <vehicle id="-E11_to_-E18_223" type="standard_car" route="-E11_to_-E18" depart="757.0" departLane="random" />
    <vehicle id="E18_to_E7_224" type="standard_car" route="E18_to_E7" depart="757.0" departLane="random" />
    <vehicle id="-E17_to_E11_225" type="standard_car" route="-E17_to_E11" depart="757.0" departLane="random" />
    <vehicle id="E18_to_E7_226" type="standard_car" route="E18_to_E7" depart="758.0" departLane="random" />
    <vehicle id="-E11_to_-E18_227" type="standard_car" route="-E11_to_-E18" depart="760.0" departLane="random" />
    <vehicle id="-E17_to_E11_228" type="standard_car" route="-E17_to_E11" depart="760.0" departLane="random" />
    <vehicle id="-E17_to_E11_229" type="standard_car" route="-E17_to_E11" depart="761.0" departLane="random" />
    <vehicle id="E18_to_E7_230" type="standard_car" route="E18_to_E7" depart="763.0" departLane="random" />
    <vehicle id="E38_to_-E18_231" type="standard_car" route="E38_to_-E18" depart="765.0" departLane="random" />
    <vehicle id="E18_to_E7_232" type="standard_car" route="E18_to_E7" depart="766.0" departLane="random" />
    <vehicle id="E18_to_E11_233" type="standard_car" route="E18_to_E11" depart="767.0" departLane="random" />
    <vehicle id="E38_to_-E18_234" type="standard_car" route="E38_to_-E18" depart="767.0" departLane="random" />
    <vehicle id="E18_to_E17_235" type="standard_car" route="E18_to_E17" depart="768.0" departLane="random" />
    <vehicle id="-E17_to_E11_236" type="standard_car" route="-E17_to_E11" depart="771.0" departLane="random" />
    <vehicle id="E18_to_E11_237" type="standard_car" route="E18_to_E11" depart="772.0" departLane="random" />
    <vehicle id="-E17_to_E7_238" type="standard_car" route="-E17_to_E7" depart="775.0" departLane="random" />
    <vehicle id="-E11_to_E17_239" type="standard_car" route="-E11_to_E17" depart="777.0" departLane="random" />
    <vehicle id="-E17_to_-E18_240" type="standard_car" route="-E17_to_-E18" depart="779.0" departLane="random" />
    <vehicle id="-E11_to_-E18_241" type="standard_car" route="-E11_to_-E18" depart="784.0" departLane="random" />
    <vehicle id="E38_to_-E18_242" type="standard_car" route="E38_to_-E18" depart="786.0" departLane="random" />
    <vehicle id="-E11_to_E17_243" type="standard_car" route="-E11_to_E17" depart="787.0" departLane="random" />
    <vehicle id="E38_to_-E18_244" type="standard_car" route="E38_to_-E18" depart="787.0" departLane="random" />
    <vehicle id="-E17_to_E11_245" type="standard_car" route="-E17_to_E11" depart="787.0" departLane="random" />
    <vehicle id="E38_to_-E18_246" type="standard_car" route="E38_to_-E18" depart="791.0" departLane="random" />
    <vehicle id="-E17_to_E11_247" type="standard_car" route="-E17_to_E11" depart="791.0" departLane="random" />
    <vehicle id="-E17_to_E11_248" type="standard_car" route="-E17_to_E11" depart="791.0" departLane="random" />
    <vehicle id="E38_to_E17_249" type="standard_car" route="E38_to_E17" depart="791.0" departLane="random" />
    <vehicle id="-E17_to_E11_250" type="standard_car" route="-E17_to_E11" depart="794.0" departLane="random" />
    <vehicle id="E18_to_E7_251" type="standard_car" route="E18_to_E7" depart="803.0" departLane="random" />
    <vehicle id="E38_to_-E18_252" type="standard_car" route="E38_to_-E18" depart="805.0" departLane="random" />
    <vehicle id="E38_to_-E18_253" type="standard_car" route="E38_to_-E18" depart="808.0" departLane="random" />
    <vehicle id="-E17_to_-E18_254" type="standard_car" route="-E17_to_-E18" depart="812.0" departLane="random" />
    <vehicle id="E18_to_E7_255" type="standard_car" route="E18_to_E7" depart="814.0" departLane="random" />
    <vehicle id="E38_to_-E18_256" type="standard_car" route="E38_to_-E18" depart="815.0" departLane="random" />
    <vehicle id="E18_to_E17_257" type="standard_car" route="E18_to_E17" depart="816.0" departLane="random" />
    <vehicle id="E38_to_-E18_258" type="standard_car" route="E38_to_-E18" depart="819.0" departLane="random" />
    <vehicle id="-E17_to_E11_259" type="standard_car" route="-E17_to_E11" depart="820.0" departLane="random" />
    <vehicle id="E18_to_E7_260" type="standard_car" route="E18_to_E7" depart="820.0" departLane="random" />
    <vehicle id="-E17_to_E11_261" type="standard_car" route="-E17_to_E11" depart="826.0" departLane="random" />
    <vehicle id="E18_to_E7_262" type="standard_car" route="E18_to_E7" depart="826.0" departLane="random" />
    <vehicle id="E18_to_E7_263" type="standard_car" route="E18_to_E7" depart="828.0" departLane="random" />