<routes>
    <vType accel="0.8" id="standard_car" decel="4.5" length="5.0" minGap="2.5" maxSpeed="16.67" sigma="0.5" />
    
    <route id="-E11_to_-E18" edges="-E11 -E18" />
    <route id="-E11_to_E17" edges="-E11 E17" />
    <route id="-E11_to_E7" edges="-E11 E7" />
    <route id="-E17_to_E7" edges="-E17 E7" />
    <route id="-E17_to_E11" edges="-E17 E11" />
    <route id="-E17_to_-E18" edges="-E17 -E18" />
    <route id="E18_to_E17" edges="E18 E17" />
    <route id="E18_to_E7" edges="E18 E7" />
    <route id="E18_to_E11" edges="E18 E11" />
    <route id="E38_to_E11" edges="E38 E11" />
    <route id="E38_to_-E18" edges="E38 -E18" />
    <route id="E38_to_E17" edges="E38 E17" />
    <vehicles id="E18_to_E7_0" type="standard_car" route="E18_to_E7" depart="28.0" departLane="random" />
    <vehicles id="-E17_to_E11_1" type="standard_car" route="-E17_to_E11" depart="45.0" departLane="random" />
    <vehicle id="E18_to_E17_2" type="standard_car" route="E18_to_E17" depart="62.0" departLane="random" />
    <vehicles id="E18_to_E7_3" type="standard_car" route="E18_to_E7" depart="75.0" departLane="random" />
    <vehicles id="E18_to_E7_4" type="standard_car" route="E18_to_E7" depart="82.0" departLane="random" />
    <vehicles id="E18_to_E7_5" type="standard_car" route="E18_to_E7" depart="86.0" departLane="random" />
    <vehicle id="-E17_to_-E18_6" type="standard_car" route="-E17_to_-E18" depart="107.0" departLane="random" />
    <vehicles id="-E17_to_E11_7" type="standard_car" route="-E17_to_E11" depart="129.0" departLane="random" />
    <vehicles id="-E11_to_E17_8" type="standard_car" route="-E11_to_E17" depart="130.0" departLane="random" />
    <vehicles id="E38_to_-E18_9" type="standard_car" route="E38_to_-E18" depart="132.0" departLane="random" />
    <vehicles id="-E11_to_E17_10" type="standard_car" route="-E11_to_E17" depart="133.0" departLane="random" />
    <vehicle id="E38_to_E11_11" type="standard_car" route="E38_to_E11" depart="139.0" departLane="random" />
    <vehicles id="E38_to_-E18_12" type="standard_car" route="E38_to_-E18" depart="150.0" departLane="random" />
    <vehicles id="-E11_to_E17_13" type="standard_car" route="-E11_to_E17" depart="154.0" departLane="random" />
    <vehicle id="-E17_to_E7_14" type="standard_car" route="-E17_to_E7" depart="154.0" departLane="random" />
    <vehicles id="E18_to_E7_15" type="standard_car" route="E18_to_E7" depart="157.0" departLane="random" />
    <vehicle id="E18_to_E17_16" type="standard_car" route="E18_to_E17" depart="164.0" departLane="random" />
    <vehicle id="-E11_to_E7_17" type="standard_car" route="-E11_to_E7" depart="165.0" departLane="random" />
    <vehicles id="-E17_to_E11_18" type="standard_car" route="-E17_to_E11" depart="167.0" departLane="random" />
    <vehicles id="E18_to_E7_19" type="standard_car" route="E18_to_E7" depart="167.0" departLane="random" />
    <vehicles id="-E11_to_E17_20" type="standard_car" route="-E11_to_E17" depart="171.0" departLane="random" />
    <vehicles id="E18_to_E7_21" type="standard_car" route="E18_to_E7" depart="172.0" departLane="random" />
    <vehicle id="-E11_to_-E18_22" type="standard_car" route="-E11_to_-E18" depart="173.0" departLane="random" />
    <vehicles id="E38_to_-E18_23" type="standard_car" route="E38_to_-E18" depart="188.0" departLane="random" />
    <vehicles id="E18_to_E7_24" type="standard_car" route="E18_to_E7" depart="190.0" departLane="random" />
    <vehicles id="-E17_to_E11_25" type="standard_car" route="-E17_to_E11" depart="193.0" departLane="random" />
    <vehicles id="-E17_to_E11_26" type="standard_car" route="-E17_to_E11" depart="206.0" departLane="random" />
    <vehicles id="-E17_to_E11_27" type="standard_car" route="-E17_to_E11" depart="207.0" departLane="random" />
    <vehicle id="E18_to_E11_28" type="standard_car" route="E18_to_E11" depart="209.0" departLane="random" />
    <vehicles id="E18_to_E7_29" type="standard_car" route="E18_to_E7" depart="210.0" departLane="random" />
    <vehicles id="E38_to_-E18_30" type="standard_car" route="E38_to_-E18" depart="216.0" departLane="random" />
    <vehicles id="-E11_to_E17_31" type="standard_car" route="-E11_to_E17" depart="220.0" departLane="random" />
    <vehicles id="-E17_to_E11_32" type="standard_car" route="-E17_to_E11" depart="221.0" departLane="random" />
    <vehicles id="E38_to_-E18_33" type="standard_car" route="E38_to_-E18" depart="228.0" departLane="random" />
    <vehicles id="E18_to_E7_34" type="standard_car" route="E18_to_E7" depart="230.0" departLane="random" />
    <vehicles id="-E11_to_E17_35" type="standard_car" route="-E11_to_E17" depart="238.0" departLane="random" />
    <vehicle id="E38_to_E11_36" type="standard_car" route="E38_to_E11" depart="240.0" departLane="random" />
    <vehicles id="-E11_to_E17_37" type="standard_car" route="-E11_to_E17" depart="241.0" departLane="random" />
    <vehicle id="E18_to_E11_38" type="standard_car" route="E18_to_E11" depart="242.0" departLane="random" />
    <vehicles id="E38_to_-E18_39" type="standard_car" route="E38_to_-E18" depart="251.0" departLane="random" />
    <vehicle id="E18_to_E17_40" type="standard_car" route="E18_to_E17" depart="256.0" departLane="random" />
    <vehicle id="E38_to_E17_41" type="standard_car" route="E38_to_E17" depart="260.0" departLane="random" />
    <vehicles id="E18_to_E7_42" type="standard_car" route="E18_to_E7" depart="263.0" departLane="random" />
    <vehicle id="-E11_to_E7_43" type="standard_car" route="-E11_to_E7" depart="268.0" departLane="random" />
    <vehicles id="-E17_to_E11_44" type="standard_car" route="-E17_to_E11" depart="270.0" departLane="random" />
    <vehicle id="E18_to_E11_45" type="standard_car" route="E18_to_E11" depart="281.0" departLane="random" />
    <vehicles id="-E11_to_E17_46" type="standard_car" route="-E11_to_E17" depart="284.0" departLane="random" />
    <vehicle id="-E11_to_-E18_47" type="standard_car" route="-E11_to_-E18" depart="286.0" departLane="random" />
    <vehicles id="-E11_to_E17_48" type="standard_car" route="-E11_to_E17" depart="290.0" departLane="random" />
    <vehicle id="-E17_to_E7_49" type="standard_car" route="-E17_to_E7" depart="290.0" departLane="random" />
    <vehicles id="E18_to_E7_50" type="standard_car" route="E18_to_E7" depart="293.0" departLane="random" />
    <vehicle id="E38_to_E11_51" type="standard_car" route="E38_to_E11" depart="294.0" departLane="random" />
    <vehicle id="E38_to_E11_52" type="standard_car" route="E38_to_E11" depart="295.0" departLane="random" />
    <vehicles id="E38_to_-E18_53" type="standard_car" route="E38_to_-E18" depart="297.0" departLane="random" />
    <vehicle id="E38_to_E11_54" type="standard_car" route="E38_to_E11" depart="298.0" departLane="random" />
    <vehicles id="-E11_to_E17_55" type="standard_car" route="-E11_to_E17" depart="299.0" departLane="random" />
    <vehicle id="-E17_to_E7_56" type="standard_car" route="-E17_to_E7" depart="301.0" departLane="random" />
    <vehicle id="-E11_to_-E18_57" type="standard_car" route="-E11_to_-E18" depart="305.0" departLane="random" />
    <vehicle id="-E11_to_-E18_58" type="standard_car" route="-E11_to_-E18" depart="305.0" departLane="random" />
    <vehicles id="E18_to_E7_59" type="standard_car" route="E18_to_E7" depart="307.0" departLane="random" />
    <vehicles id="E38_to_-E18_60" type="standard_car" route="E38_to_-E18" depart="307.0" departLane="random" />
    <vehicle id="-E11_to_E7_61" type="standard_car" route="-E11_to_E7" depart="309.0" departLane="random" />
    <vehicle id="E38_to_E11_62" type="standard_car" route="E38_to_E11" depart="309.0" departLane="random" />
    <vehicles id="E38_to_-E18_63" type="standard_car" route="E38_to_-E18" depart="312.0" departLane="random" />
    <vehicles id="E38_to_-E18_64" type="standard_car" route="E38_to_-E18" depart="313.0" departLane="random" />
    <vehicle id="-E11_to_-E18_65" type="standard_car" route="-E11_to_-E18" depart="314.0" departLane="random" />
    <vehicles id="-E17_to_E11_66" type="standard_car" route="-E17_to_E11" depart="317.0" departLane="random" />
    <vehicles id="-E11_to_E17_67" type="standard_car" route="-E11_to_E17" depart="319.0" departLane="random" />
    <vehicles id="E18_to_E7_68" type="standard_car" route="E18_to_E7" depart="321.0" departLane="random" />
    <vehicle id="-E11_to_-E18_69" type="standard_car" route="-E11_to_-E18" depart="321.0" departLane="random" />
    <vehicle id="-E17_to_E7_70" type="standard_car" route="-E17_to_E7" depart="321.0" departLane="random" />
    <vehicle id="E38_to_E11_71" type="standard_car" route="E38_to_E11" depart="323.0" departLane="random" />
    <vehicles id="-E17_to_E11_72" type="standard_car" route="-E17_to_E11" depart="325.0" departLane="random" />
    <vehicles id="E18_to_E7_73" type="standard_car" route="E18_to_E7" depart="326.0" departLane="random" />
    <vehicles id="-E17_to_E11_74" type="standard_car" route="-E17_to_E11" depart="336.0" departLane="random" />
    <vehicles id="E18_to_E7_75" type="standard_car" route="E18_to_E7" depart="338.0" departLane="random" />
    <vehicles id="E38_to_-E18_76" type="standard_car" route="E38_to_-E18" depart="340.0" departLane="random" />
    <vehicles id="E38_to_-E18_77" type="standard_car" route="E38_to_-E18" depart="345.0" departLane="random" />
    <vehicles id="E18_to_E7_78" type="standard_car" route="E18_to_E7" depart="348.0" departLane="random" />
    <vehicles id="E18_to_E7_79" type="standard_car" route="E18_to_E7" depart="349.0" departLane="random" />
    <vehicles id="E38_to_-E18_80" type="standard_car" route="E38_to_-E18" depart="350.0" departLane="random" />
    <vehicle id="-E11_to_E7_81" type="standard_car" route="-E11_to_E7" depart="354.0" departLane="random" />
    <vehicles id="E38_to_-E18_82" type="standard_car" route="E38_to_-E18" depart="358.0" departLane="random" />
    <vehicles id="E38_to_-E18_83" type="standard_car" route="E38_to_-E18" depart="362.0" departLane="random" />
    <vehicle id="E38_to_E11_84" type="standard_car" route="E38_to_E11" depart="367.0" departLane="random" />
    <vehicles id="E18_to_E7_85" type="standard_car" route="E18_to_E7" depart="368.0" departLane="random" />
    <vehicles id="-E17_to_E11_86" type="standard_car" route="-E17_to_E11" depart="370.0" departLane="random" />
    <vehicle id="E38_to_E11_87" type="standard_car" route="E38_to_E11" depart="377.0" departLane="random" />
    <vehicle id="-E11_to_-E18_88" type="standard_car" route="-E11_to_-E18" depart="381.0" departLane="random" />
    <vehicle id="E18_to_E11_89" type="standard_car" route="E18_to_E11" depart="382.0" departLane="random" />
    <vehicles id="E38_to_-E18_90" type="standard_car" route="E38_to_-E18" depart="383.0" departLane="random" />
    <vehicles id="-E11_to_E17_91" type="standard_car" route="-E11_to_E17" depart="384.0" departLane="random" />
    <vehicles id="E18_to_E7_92" type="standard_car" route="E18_to_E7" depart="384.0" departLane="random" />
    <vehicles id="-E11_to_E17_93" type="standard_car" route="-E11_to_E17" depart="384.0" departLane="random" />
    <vehicles id="E38_to_-E18_94" type="standard_car" route="E38_to_-E18" depart="385.0" departLane="random" />
    <vehicles id="E38_to_-E18_95" type="standard_car" route="E38_to_-E18" depart="385.0" departLane="random" />
    <vehicles id="E18_to_E7_96" type="standard_car" route="E18_to_E7" depart="389.0" departLane="random" />
    <vehicles id="-E11_to_E17_97" type="standard_car" route="-E11_to_E17" depart="389.0" departLane="random" />
    <vehicles id="-E17_to_E11_98" type="standard_car" route="-E17_to_E11" depart="390.0" departLane="random" />
    <vehicle id="E18_to_E11_99" type="standard_car" route="E18_to_E11" depart="390.0" departLane="random" />
    <vehicles id="E18_to_E7_100" type="standard_car" route="E18_to_E7" depart="390.0" departLane="random" />
    <vehicles id="E38_to_-E18_101" type="standard_car" route="E38_to_-E18" depart="394.0" departLane="random" />
    <vehicles id="-E17_to_E11_102" type="standard_car" route="-E17_to_E11" depart="394.0" departLane="random" />
    <vehicle id="E38_to_E17_103" type="standard_car" route="E38_to_E17" depart="396.0" departLane="random" />
    <vehicles id="E18_to_E7_104" type="standard_car" route="E18_to_E7" depart="399.0" departLane="random" />
    <vehicle id="-E17_to_-E18_105" type="standard_car" route="-E17_to_-E18" depart="401.0" departLane="random" />
    <vehicle id="-E11_to_E7_106" type="standard_car" route="-E11_to_E7" depart="404.0" departLane="random" />
    <vehicle id="-E17_to_-E18_107" type="standard_car" route="-E17_to_-E18" depart="404.0" departLane="random" />
    <vehicles id="E38_to_-E18_108" type="standard_car" route="E38_to_-E18" depart="405.0" departLane="random" />
    <vehicles id="E38_to_-E18_109" type="standard_car" route="E38_to_-E18" depart="409.0" departLane="random" />
    <vehicles id="E18_to_E7_110" type="standard_car" route="E18_to_E7" depart="410.0" departLane="random" />
    <vehicle id="E38_to_E17_111" type="standard_car" route="E38_to_E17" depart="411.0" departLane="random" />
    <vehicle id="-E11_to_-E18_112" type="standard_car" route="-E11_to_-E18" depart="413.0" departLane="random" />
    <vehicles id="E38_to_-E18_113" type="standard_car" route="E38_to_-E18" depart="414.0" departLane="random" />
    <vehicles id="E18_to_E7_114" type="standard_car" route="E18_to_E7" depart="420.0" departLane="random" />
    <vehicle id="E38_to_E17_115" type="standard_car" route="E38_to_E17" depart="421.0" departLane="random" />
    <vehicle id="-E11_to_E7_116" type="standard_car" route="-E11_to_E7" depart="421.0" departLane="random" />
    <vehicle id="-E17_to_-E18_117" type="standard_car" route="-E17_to_-E18" depart="421.0" departLane="random" />
    <vehicles id="E38_to_-E18_118" type="standard_car" route="E38_to_-E18" depart="421.0" departLane="random" />
    <vehicle id="E18_to_E11_119" type="standard_car" route="E18_to_E11" depart="424.0" departLane="random" />
    <vehicle id="E38_to_E17_120" type="standard_car" route="E38_to_E17" depart="424.0" departLane="random" />
    <vehicle id="E18_to_E11_121" type="standard_car" route="E18_to_E11" depart="424.0" departLane="random" />
    <vehicles id="-E17_to_E11_122" type="standard_car" route="-E17_to_E11" depart="424.0" departLane="random" />
    <vehicle id="E38_to_E17_123" type="standard_car" route="E38_to_E17" depart="424.0" departLane="random" />
    <vehicle id="E18_to_E11_124" type="standard_car" route="E18_to_E11" depart="426.0" departLane="random" />
    <vehicle id="-E11_to_-E18_125" type="standard_car" route="-E11_to_-E18" depart="427.0" departLane="random" />
    <vehicle id="E18_to_E11_126" type="standard_car" route="E18_to_E11" depart="429.0" departLane="random" />
    <vehicle id="-E17_to_E7_127" type="standard_car" route="-E17_to_E7" depart="429.0" departLane="random" />
    <vehicles id="-E11_to_E17_128" type="standard_car" route="-E11_to_E17" depart="436.0" departLane="random" />
    <vehicles id="-E11_to_E17_129" type="standard_car" route="-E11_to_E17" depart="446.0" departLane="random" />
    <vehicles id="E18_to_E7_130" type="standard_car" route="E18_to_E7" depart="446.0" departLane="random" />
    <vehicles id="-E11_to_E17_131" type="standard_car" route="-E11_to_E17" depart="450.0" departLane="random" />
    <vehicles id="E18_to_E7_132" type="standard_car" route="E18_to_E7" depart="450.0" departLane="random" />
    <vehicles id="-E17_to_E11_133" type="standard_car" route="-E17_to_E11" depart="451.0" departLane="random" />
    <vehicle id="E18_to_E11_134" type="standard_car" route="E18_to_E11" depart="451.0" departLane="random" />
    <vehicle id="E18_to_E11_135" type="standard_car" route="E18_to_E11" depart="452.0" departLane="random" />
    <vehicle id="E38_to_E17_136" type="standard_car" route="E38_to_E17" depart="452.0" departLane="random" />
    <vehicles id="E18_to_E7_137" type="standard_car" route="E18_to_E7" depart="454.0" departLane="random" />
    <vehicle id="E18_to_E11_138" type="standard_car" route="E18_to_E11" depart="454.0" departLane="random" />
    <vehicle id="-E17_to_-E18_139" type="standard_car" route="-E17_to_-E18" depart="458.0" departLane="random" />
    <vehicles id="E38_to_-E18_140" type="standard_car" route="E38_to_-E18" depart="460.0" departLane="random" />
    <vehicle id="-E11_to_-E18_141" type="standard_car" route="-E11_to_-E18" depart="463.0" departLane="random" />
    <vehicles id="E18_to_E7_142" type="standard_car" route="E18_to_E7" depart="464.0" departLane="random" />
    <vehicle id="-E17_to_-E18_143" type="standard_car" route="-E17_to_-E18" depart="467.0" departLane="random" />
    <vehicles id="-E11_to_E17_144" type="standard_car" route="-E11_to_E17" depart="467.0" departLane="random" />
    <vehicle id="-E11_to_E7_145" type="standard_car" route="-E11_to_E7" depart="469.0" departLane="random" />
    <vehicles id="E38_to_-E18_146" type="standard_car" route="E38_to_-E18" depart="472.0" departLane="random" />
    <vehicles id="E18_to_E7_147" type="standard_car" route="E18_to_E7" depart="475.0" departLane="random" />
    <vehicle id="-E17_to_E7_148" type="standard_car" route="-E17_to_E7" depart="478.0" departLane="random" />
    <vehicles id="-E17_to_E11_149" type="standard_car" route="-E17_to_E11" depart="480.0" departLane="random" />
    <vehicles id="E18_to_E7_150" type="standard_car" route="E18_to_E7" depart="480.0" departLane="random" />
    <vehicles id="E38_to_-E18_151" type="standard_car" route="E38_to_-E18" depart="480.0" departLane="random" />
    <vehicles id="E38_to_-E18_152" type="standard_car" route="E38_to_-E18" depart="481.0" departLane="random" />
    <vehicles id="E18_to_E7_153" type="standard_car" route="E18_to_E7" depart="483.0" departLane="random" />
    <vehicles id="-E11_to_E17_154" type="standard_car" route="-E11_to_E17" depart="485.0" departLane="random" />
    <vehicles id="-E17_to_E11_155" type="standard_car" route="-E17_to_E11" depart="488.0" departLane="random" />
    <vehicles id="E38_to_-E18_156" type="standard_car" route="E38_to_-E18" depart="490.0" departLane="random" />
    <vehicles id="-E11_to_E17_157" type="standard_car" route="-E11_to_E17" depart="495.0" departLane="random" />
    <vehicles id="-E11_to_E17_158" type="standard_car" route="-E11_to_E17" depart="499.0" departLane="random" />
    <vehicles id="-E11_to_E17_159" type="standard_car" route="-E11_to_E17" depart="500.0" departLane="random" />
    <vehicles id="-E11_to_E17_160" type="standard_car" route="-E11_to_E17" depart="500.0" departLane="random" />
    <vehicle id="E38_to_E11_161" type="standard_car" route="E38_to_E11" depart="501.0" departLane="random" />
    <vehicles id="-E11_to_E17_162" type="standard_car" route="-E11_to_E17" depart="501.0" departLane="random" />
    <vehicles id="-E11_to_E17_163" type="standard_car" route="-E11_to_E17" depart="502.0" departLane="random" />
    <vehicles id="E38_to_-E18_164" type="standard_car" route="E38_to_-E18" depart="502.0" departLane="random" />
    <vehicles id="E18_to_E7_165" type="standard_car" route="E18_to_E7" depart="503.0" departLane="random" />
    <vehicles id="E38_to_-E18_166" type="standard_car" route="E38_to_-E18" depart="505.0" departLane="random" />
    <vehicle id="-E11_to_E7_167" type="standard_car" route="-E11_to_E7" depart="505.0" departLane="random" />
    <vehicles id="E18_to_E7_168" type="standard_car" route="E18_to_E7" depart="505.0" departLane="random" />
    <vehicle id="-E11_to_E7_169" type="standard_car" route="-E11_to_E7" depart="506.0" departLane="random" />
    <vehicles id="-E17_to_E11_170" type="standard_car" route="-E17_to_E11" depart="509.0" departLane="random" />
    <vehicle id="-E11_to_-E18_171" type="standard_car" route="-E11_to_-E18" depart="511.0" departLane="random" />
    <vehicle id="E18_to_E17_172" type="standard_car" route="E18_to_E17" depart="516.0" departLane="random" />
    <vehicles id="-E17_to_E11_173" type="standard_car" route="-E17_to_E11" depart="521.0" departLane="random" />
    <vehicle id="-E11_to_-E18_174" type="standard_car" route="-E11_to_-E18" depart="521.0" departLane="random" />
    <vehicles id="E38_to_-E18_175" type="standard_car" route="E38_to_-E18" depart="523.0" departLane="random" />
    <vehicle id="-E11_to_E7_176" type="standard_car" route="-E11_to_E7" depart="526.0" departLane="random" />
    <vehicle id="E18_to_E17_177" type="standard_car" route="E18_to_E17" depart="526.0" departLane="random" />
    <vehicles id="E38_to_-E18_178" type="standard_car" route="E38_to_-E18" depart="527.0" departLane="random" />
    <vehicles id="-E11_to_E17_179" type="standard_car" route="-E11_to_E17" depart="529.0" departLane="random" />
    <vehicles id="E38_to_-E18_180" type="standard_car" route="E38_to_-E18" depart="530.0" departLane="random" />
    <vehicle id="E38_to_E11_181" type="standard_car" route="E38_to_E11" depart="532.0" departLane="random" />
    <vehicles id="-E17_to_E11_182" type="standard_car" route="-E17_to_E11" depart="534.0" departLane="random" />
    <vehicles id="E38_to_-E18_183" type="standard_car" route="E38_to_-E18" depart="534.0" departLane="random" />
    <vehicle id="E18_to_E11_184" type="standard_car" route="E18_to_E11" depart="536.0" departLane="random" />
    <vehicles id="E38_to_-E18_185" type="standard_car" route="E38_to_-E18" depart="540.0" departLane="random" />
    <vehicles id="E18_to_E7_186" type="standard_car" route="E18_to_E7" depart="540.0" departLane="random" />
    <vehicles id="E18_to_E7_187" type="standard_car" route="E18_to_E7" depart="540.0" departLane="random" />
    <vehicles id="E38_to_-E18_188" type="standard_car" route="E38_to_-E18" depart="543.0" departLane="random" />
    <vehicles id="-E11_to_E17_189" type="standard_car" route="-E11_to_E17" depart="544.0" departLane="random" />
    <vehicle id="E38_to_E11_190" type="standard_car" route="E38_to_E11" depart="544.0" departLane="random" />
    <vehicle id="E18_to_E17_191" type="standard_car" route="E18_to_E17" depart="545.0" departLane="random" />
    <vehicles id="-E17_to_E11_192" type="standard_car" route="-E17_to_E11" depart="546.0" departLane="random" />
    <vehicles id="-E17_to_E11_193" type="standard_car" route="-E17_to_E11" depart="551.0" departLane="random" />
    <vehicle id="E18_to_E17_194" type="standard_car" route="E18_to_E17" depart="552.0" departLane="random" />
    <vehicles id="-E11_to_E17_195" type="standard_car" route="-E11_to_E17" depart="561.0" departLane="random" />
    <vehicles id="-E17_to_E11_196" type="standard_car" route="-E17_to_E11" depart="562.0" departLane="random" />
    <vehicles id="-E17_to_E11_197" type="standard_car" route="-E17_to_E11" depart="562.0" departLane="random" />
    <vehicles id="E18_to_E7_198" type="standard_car" route="E18_to_E7" depart="566.0" departLane="random" />
    <vehicle id="E38_to_E17_199" type="standard_car" route="E38_to_E17" depart="567.0" departLane="random" />
    <vehicle id="-E17_to_-E18_200" type="standard_car" route="-E17_to_-E18" depart="575.0" departLane="random" />
    <vehicle id="E18_to_E11_201" type="standard_car" route="E18_to_E11" depart="579.0" departLane="random" />
    <vehicle id="E18_to_E17_202" type="standard_car" route="E18_to_E17" depart="580.0" departLane="random" />
    <vehicles id="E18_to_E7_203" type="standard_car" route="E18_to_E7" depart="581.0" departLane="random" />
    <vehicle id="-E17_to_E7_204" type="standard_car" route="-E17_to_E7" depart="582.0" departLane="random" />
    <vehicle id="E18_to_E17_205" type="standard_car" route="E18_to_E17" depart="582.0" departLane="random" />
    <vehicle id="-E17_to_-E18_206" type="standard_car" route="-E17_to_-E18" depart="583.0" departLane="random" />
    <vehicles id="E18_to_E7_207" type="standard_car" route="E18_to_E7" depart="585.0" departLane="random" />
    <vehicles id="E38_to_-E18_208" type="standard_car" route="E38_to_-E18" depart="586.0" departLane="random" />
    <vehicles id="E18_to_E7_209" type="standard_car" route="E18_to_E7" depart="588.0" departLane="random" />
    <vehicle id="E38_to_E11_210" type="standard_car" route="E38_to_E11" depart="589.0" departLane="random" />
    <vehicle id="-E11_to_E7_211" type="standard_car" route="-E11_to_E7" depart="591.0" departLane="random" />
    <vehicle id="E18_to_E11_212" type="standard_car" route="E18_to_E11" depart="591.0" departLane="random" />
    <vehicles id="E38_to_-E18_213" type="standard_car" route="E38_to_-E18" depart="593.0" departLane="random" />
    <vehicles id="-E17_to_E11_214" type="standard_car" route="-E17_to_E11" depart="593.0" departLane="random" />
    <vehicle id="E18_to_E11_215" type="standard_car" route="E18_to_E11" depart="593.0" departLane="random" />
    <vehicle id="E38_to_E17_216" type="standard_car" route="E38_to_E17" depart="595.0" departLane="random" />
    <vehicles id="-E17_to_E11_217" type="standard_car" route="-E17_to_E11" depart="598.0" departLane="random" />
    <vehicles id="E38_to_-E18_218" type="standard_car" route="E38_to_-E18" depart="600.0" departLane="random" />
    <vehicles id="-E17_to_E11_219" type="standard_car" route="-E17_to_E11" depart="600.0" departLane="random" />
    <vehicles id="E18_to_E7_220" type="standard_car" route="E18_to_E7" depart="603.0" departLane="random" />
    <vehicles id="E38_to_-E18_221" type="standard_car" route="E38_to_-E18" depart="603.0" departLane="random" />
    <vehicles id="E38_to_-E18_222" type="standard_car" route="E38_to_-E18" depart="604.0" departLane="random" />
    <vehicles id="-E11_to_E17_223" type="standard_car" route="-E11_to_E17" depart="605.0" departLane="random" />
    <vehicle id="E18_to_E11_224" type="standard_car" route="E18_to_E11" depart="609.0" departLane="random" />
    <vehicles id="-E17_to_E11_225" type="standard_car" route="-E17_to_E11" depart="610.0" departLane="random" />
    <vehicles id="E38_to_-E18_226" type="standard_car" route="E38_to_-E18" depart="610.0" departLane="random" />
    <vehicles id="E38_to_-E18_227" type="standard_car" route="E38_to_-E18" depart="611.0" departLane="random" />
    <vehicle id="E38_to_E17_228" type="standard_car" route="E38_to_E17" depart="613.0" departLane="random" />
    <vehicles id="E18_to_E7_229" type="standard_car" route="E18_to_E7" depart="616.0" departLane="random" />
    <vehicle id="-E17_to_-E18_230" type="standard_car" route="-E17_to_-E18" depart="617.0" departLane="random" />
    <vehicles id="E18_to_E7_231" type="standard_car" route="E18_to_E7" depart="617.0" departLane="random" />
    <vehicles id="E18_to_E7_232" type="standard_car" route="E18_to_E7" depart="618.0" departLane="random" />
    <vehicles id="E38_to_-E18_233" type="standard_car" route="E38_to_-E18" depart="619.0" departLane="random" />
    <vehicles id="-E11_to_E17_234" type="standard_car" route="-E11_to_E17" depart="625.0" departLane="random" />
    <vehicle id="E18_to_E11_235" type="standard_car" route="E18_to_E11" depart="625.0" departLane="random" />
    <vehicles id="-E17_to_E11_236" type="standard_car" route="-E17_to_E11" depart="625.0" departLane="random" />
    <vehicles id="-E11_to_E17_237" type="standard_car" route="-E11_to_E17" depart="626.0" departLane="random" />
    <vehicles id="-E11_to_E17_238" type="standard_car" route="-E11_to_E17" depart="629.0" departLane="random" />
    <vehicles id="-E17_to_E11_239" type="standard_car" route="-E17_to_E11" depart="630.0" departLane="random" />
    <vehicle id="-E17_to_E7_240" type="standard_car" route="-E17_to_E7" depart="631.0" departLane="random" />
    <vehicle id="E38_to_E11_241" type="standard_car" route="E38_to_E11" depart="631.0" departLane="random" />
    <vehicles id="E18_to_E7_242" type="standard_car" route="E18_to_E7" depart="632.0" departLane="random" />
    <vehicle id="E38_to_E11_243" type="standard_car" route="E38_to_E11" depart="632.0" departLane="random" />
    <vehicle id="E38_to_E17_244" type="standard_car" route="E38_to_E17" depart="635.0" departLane="random" />
    <vehicle id="E38_to_E11_245" type="standard_car" route="E38_to_E11" depart="636.0" departLane="random" />
    <vehicle id="-E11_to_E7_246" type="standard_car" route="-E11_to_E7" depart="637.0" departLane="random" />
    <vehicle id="-E17_to_E7_247" type="standard_car" route="-E17_to_E7" depart="638.0" departLane="random" />
    <vehicle id="E18_to_E17_248" type="standard_car" route="E18_to_E17" depart="638.0" departLane="random" />
    <vehicle id="-E11_to_E7_249" type="standard_car" route="-E11_to_E7" depart="640.0" departLane="random" />
    <vehicle id="E18_to_E17_250" type="standard_car" route="E18_to_E17" depart="640.0" departLane="random" />
    <vehicles id="E38_to_-E18_251" type="standard_car" route="E38_to_-E18" depart="641.0" departLane="random" />
    <vehicles id="-E11_to_E17_252" type="standard_car" route="-E11_to_E17" depart="642.0" departLane="random" />
    <vehicles id="-E11_to_E17_253" type="standard_car" route="-E11_to_E17" depart="643.0" departLane="random" />
    <vehicles id="E38_to_-E18_254" type="standard_car" route="E38_to_-E18" depart="644.0" departLane="random" />
    <vehicles id="-E17_to_E11_255" type="standard_car" route="-E17_to_E11" depart="647.0" departLane="random" />
    <vehicles id="-E11_to_E17_256" type="standard_car" route="-E11_to_E17" depart="648.0" departLane="random" />
    <vehicle id="-E11_to_E7_257" type="standard_car" route="-E11_to_E7" depart="649.0" departLane="random" />
    <vehicles id="-E11_to_E17_258" type="standard_car" route="-E11_to_E17" depart="649.0" departLane="random" />
    <vehicle id="E18_to_E17_259" type="standard_car" route="E18_to_E17" depart="649.0" departLane="random" />
    <vehicles id="-E17_to_E11_260" type="standard_car" route="-E17_to_E11" depart="650.0" departLane="random" />
    <vehicle id="E38_to_E17_261" type="standard_car" route="E38_to_E17" depart="654.0" departLane="random" />
    <vehicle id="-E11_to_-E18_262" type="standard_car" route="-E11_to_-E18" depart="657.0" departLane="random" />