<routes>
    <vType accel="0.8" id="standard_car" decel="4.5" length="5.0" minGap="2.5" maxSpeed="16.67" sigma="0.5" />
    
    <route id="-E11_to_-E18" edges="-E11 -E18" />
    <route id="-E11_to_E17" edges="-E11 E17" />
    <route id="-E11_to_E7" edges="-E11 E7" />
    <route id="-E17_to_E7" edges="-E17 E7" />
    <route id="-E17_to_E11" edges="-E17 E11" />
    <route id="-E17_to_-E18" edges="-E17 -E18" />
    <route id="E18_to_E17" edges="E18 E17" />
    <route id="E18_to_E7" edges="E18 E7" />
    <route id="E18_to_E11" edges="E18 E11" />
    <route id="E38_to_E11" edges="E38 E11" />
    <route id="E38_to_-E18" edges="E38 -E18" />
    <route id="E38_to_E17" edges="E38 E17" />
    <vehicle id="E18_to_E7_0" type="standard_car" route="E18_to_E7" depart="42.0" departLane="allowed" />
    <vehicle id="-E17_to_E11_1" type="standard_car" route="-E17_to_E11" depart="67.0" departLane="allowed" />
    <vehicle id="E18_to_E17_2" type="standard_car" route="E18_to_E17" depart="94.0" departLane="allowed" />
    <vehicle id="E18_to_E7_3" type="standard_car" route="E18_to_E7" depart="112.0" departLane="allowed" />
    <vehicle id="E18_to_E7_4" type="standard_car" route="E18_to_E7" depart="123.0" departLane="allowed" />
    <vehicle id="E18_to_E7_5" type="standard_car" route="E18_to_E7" depart="129.0" departLane="allowed" />
    <vehicle id="-E17_to_-E18_6" type="standard_car" route="-E17_to_-E18" depart="160.0" departLane="allowed" />
    <vehicle id="-E17_to_E11_7" type="standard_car" route="-E17_to_E11" depart="193.0" departLane="allowed" />
    <vehicle id="-E11_to_E17_8" type="standard_car" route="-E11_to_E17" depart="195.0" departLane="allowed" />
    <vehicle id="E38_to_-E18_9" type="standard_car" route="E38_to_-E18" depart="198.0" departLane="allowed" />
    <vehicle id="-E11_to_E17_10" type="standard_car" route="-E11_to_E17" depart="199.0" departLane="allowed" />
    <vehicle id="E38_to_E11_11" type="standard_car" route="E38_to_E11" depart="208.0" departLane="allowed" />
    <vehicle id="E38_to_-E18_12" type="standard_car" route="E38_to_-E18" depart="226.0" departLane="allowed" />
    <vehicle id="-E11_to_E17_13" type="standard_car" route="-E11_to_E17" depart="231.0" departLane="allowed" />
    <vehicle id="E18_to_E7_14" type="standard_car" route="E18_to_E7" depart="232.0" departLane="allowed" />
    <vehicle id="E18_to_E7_15" type="standard_car" route="E18_to_E7" depart="235.0" departLane="allowed" />
    <vehicle id="E18_to_E17_16" type="standard_car" route="E18_to_E17" depart="246.0" departLane="allowed" />
    <vehicle id="-E17_to_E11_17" type="standard_car" route="-E17_to_E11" depart="248.0" departLane="allowed" />
    <vehicle id="-E17_to_E11_18" type="standard_car" route="-E17_to_E11" depart="250.0" departLane="allowed" />
    <vehicle id="E18_to_E7_19" type="standard_car" route="E18_to_E7" depart="251.0" departLane="allowed" />
    <vehicle id="-E11_to_E17_20" type="standard_car" route="-E11_to_E17" depart="257.0" departLane="allowed" />
    <vehicle id="E18_to_E7_21" type="standard_car" route="E18_to_E7" depart="257.0" departLane="allowed" />
    <vehicle id="-E11_to_-E18_22" type="standard_car" route="-E11_to_-E18" depart="260.0" departLane="allowed" />
    <vehicle id="E38_to_-E18_23" type="standard_car" route="E38_to_-E18" depart="282.0" departLane="allowed" />
    <vehicle id="E18_to_E7_24" type="standard_car" route="E18_to_E7" depart="285.0" departLane="allowed" />
    <vehicle id="-E17_to_E11_25" type="standard_car" route="-E17_to_E11" depart="290.0" departLane="allowed" />
    <vehicle id="-E17_to_E11_26" type="standard_car" route="-E17_to_E11" depart="309.0" departLane="allowed" />
    <vehicle id="-E17_to_E11_27" type="standard_car" route="-E17_to_E11" depart="310.0" departLane="allowed" />
    <vehicle id="-E17_to_E11_28" type="standard_car" route="-E17_to_E11" depart="314.0" departLane="allowed" />
    <vehicle id="E18_to_E7_29" type="standard_car" route="E18_to_E7" depart="315.0" departLane="allowed" />
    <vehicle id="E38_to_-E18_30" type="standard_car" route="E38_to_-E18" depart="324.0" departLane="allowed" />
    <vehicle id="-E11_to_E17_31" type="standard_car" route="-E11_to_E17" depart="330.0" departLane="allowed" />
    <vehicle id="-E17_to_E11_32" type="standard_car" route="-E17_to_E11" depart="331.0" departLane="allowed" />
    <vehicle id="E38_to_-E18_33" type="standard_car" route="E38_to_-E18" depart="342.0" departLane="allowed" />
    <vehicle id="E18_to_E7_34" type="standard_car" route="E18_to_E7" depart="345.0" departLane="allowed" />
    <vehicle id="-E11_to_E17_35" type="standard_car" route="-E11_to_E17" depart="357.0" departLane="allowed" />
    <vehicle id="E38_to_E11_36" type="standard_car" route="E38_to_E11" depart="360.0" departLane="allowed" />
    <vehicle id="-E11_to_E17_37" type="standard_car" route="-E11_to_E17" depart="362.0" departLane="allowed" />
    <vehicle id="E18_to_E11_38" type="standard_car" route="E18_to_E11" depart="364.0" departLane="allowed" />
    <vehicle id="E38_to_-E18_39" type="standard_car" route="E38_to_-E18" depart="377.0" departLane="allowed" />
    <vehicle id="E18_to_E17_40" type="standard_car" route="E18_to_E17" depart="385.0" departLane="allowed" />
    <vehicle id="E38_to_-E18_41" type="standard_car" route="E38_to_-E18" depart="391.0" departLane="allowed" />
    <vehicle id="E18_to_E7_42" type="standard_car" route="E18_to_E7" depart="394.0" departLane="allowed" />
    <vehicle id="-E11_to_E7_43" type="standard_car" route="-E11_to_E7" depart="402.0" departLane="allowed" />
    <vehicle id="-E17_to_E11_44" type="standard_car" route="-E17_to_E11" depart="405.0" departLane="allowed" />
    <vehicle id="-E17_to_E11_45" type="standard_car" route="-E17_to_E11" depart="422.0" departLane="allowed" />
    <vehicle id="-E11_to_E17_46" type="standard_car" route="-E11_to_E17" depart="425.0" departLane="allowed" />
    <vehicle id="-E11_to_-E18_47" type="standard_car" route="-E11_to_-E18" depart="430.0" departLane="allowed" />
    <vehicle id="-E11_to_E17_48" type="standard_car" route="-E11_to_E17" depart="435.0" departLane="allowed" />
    <vehicle id="-E17_to_E7_49" type="standard_car" route="-E17_to_E7" depart="436.0" departLane="allowed" />
    <vehicle id="E18_to_E7_50" type="standard_car" route="E18_to_E7" depart="440.0" departLane="allowed" />
    <vehicle id="E38_to_E11_51" type="standard_car" route="E38_to_E11" depart="441.0" departLane="allowed" />
    <vehicle id="E18_to_E7_52" type="standard_car" route="E18_to_E7" depart="442.0" departLane="allowed" />
    <vehicle id="E38_to_-E18_53" type="standard_car" route="E38_to_-E18" depart="445.0" departLane="allowed" />
    <vehicle id="E38_to_E11_54" type="standard_car" route="E38_to_E11" depart="448.0" departLane="allowed" />
    <vehicle id="-E11_to_E17_55" type="standard_car" route="-E11_to_E17" depart="449.0" departLane="allowed" />
    <vehicle id="-E17_to_E7_56" type="standard_car" route="-E17_to_E7" depart="452.0" departLane="allowed" />
    <vehicle id="-E11_to_-E18_57" type="standard_car" route="-E11_to_-E18" depart="458.0" departLane="allowed" />
    <vehicle id="-E11_to_-E18_58" type="standard_car" route="-E11_to_-E18" depart="458.0" departLane="allowed" />
    <vehicle id="E18_to_E7_59" type="standard_car" route="E18_to_E7" depart="460.0" departLane="allowed" />
    <vehicle id="E38_to_-E18_60" type="standard_car" route="E38_to_-E18" depart="461.0" departLane="allowed" />
    <vehicle id="-E11_to_E7_61" type="standard_car" route="-E11_to_E7" depart="463.0" departLane="allowed" />
    <vehicle id="E38_to_E11_62" type="standard_car" route="E38_to_E11" depart="463.0" departLane="allowed" />
    <vehicle id="E38_to_-E18_63" type="standard_car" route="E38_to_-E18" depart="468.0" departLane="allowed" />
    <vehicle id="E38_to_-E18_64" type="standard_car" route="E38_to_-E18" depart="469.0" departLane="allowed" />
    <vehicle id="-E11_to_-E18_65" type="standard_car" route="-E11_to_-E18" depart="471.0" departLane="allowed" />
    <vehicle id="-E17_to_E11_66" type="standard_car" route="-E17_to_E11" depart="475.0" departLane="allowed" />
    <vehicle id="-E11_to_E17_67" type="standard_car" route="-E11_to_E17" depart="478.0" departLane="allowed" />
    <vehicle id="E18_to_E7_68" type="standard_car" route="E18_to_E7" depart="481.0" departLane="allowed" />
    <vehicle id="-E11_to_-E18_69" type="standard_car" route="-E11_to_-E18" depart="482.0" departLane="allowed" />
    <vehicle id="-E17_to_E7_70" type="standard_car" route="-E17_to_E7" depart="482.0" departLane="allowed" />
    <vehicle id="E38_to_E11_71" type="standard_car" route="E38_to_E11" depart="485.0" departLane="allowed" />
    <vehicle id="-E17_to_E11_72" type="standard_car" route="-E17_to_E11" depart="488.0" departLane="allowed" />
    <vehicle id="E18_to_E7_73" type="standard_car" route="E18_to_E7" depart="489.0" departLane="allowed" />
    <vehicle id="-E17_to_E11_74" type="standard_car" route="-E17_to_E11" depart="504.0" departLane="allowed" />
    <vehicle id="E18_to_E7_75" type="standard_car" route="E18_to_E7" depart="508.0" departLane="allowed" />
    <vehicle id="E38_to_-E18_76" type="standard_car" route="E38_to_-E18" depart="509.0" departLane="allowed" />
    <vehicle id="E38_to_-E18_77" type="standard_car" route="E38_to_-E18" depart="518.0" departLane="allowed" />
    <vehicle id="E18_to_E7_78" type="standard_car" route="E18_to_E7" depart="522.0" departLane="allowed" />
    <vehicle id="E18_to_E7_79" type="standard_car" route="E18_to_E7" depart="523.0" departLane="allowed" />
    <vehicle id="E38_to_-E18_80" type="standard_car" route="E38_to_-E18" depart="524.0" departLane="allowed" />
    <vehicle id="-E17_to_E11_81" type="standard_car" route="-E17_to_E11" depart="531.0" departLane="allowed" />
    <vehicle id="E38_to_-E18_82" type="standard_car" route="E38_to_-E18" depart="538.0" departLane="allowed" />
    <vehicle id="E38_to_-E18_83" type="standard_car" route="E38_to_-E18" depart="543.0" departLane="allowed" />
    <vehicle id="E38_to_E11_84" type="standard_car" route="E38_to_E11" depart="551.0" departLane="allowed" />
    <vehicle id="E18_to_E7_85" type="standard_car" route="E18_to_E7" depart="552.0" departLane="allowed" />
    <vehicle id="-E17_to_E11_86" type="standard_car" route="-E17_to_E11" depart="556.0" departLane="allowed" />
    <vehicle id="E18_to_E7_87" type="standard_car" route="E18_to_E7" depart="565.0" departLane="allowed" />
    <vehicle id="-E11_to_-E18_88" type="standard_car" route="-E11_to_-E18" depart="572.0" departLane="allowed" />
    <vehicle id="E18_to_E11_89" type="standard_car" route="E18_to_E11" depart="573.0" departLane="allowed" />
    <vehicle id="E38_to_-E18_90" type="standard_car" route="E38_to_-E18" depart="574.0" departLane="allowed" />
    <vehicle id="-E11_to_E17_91" type="standard_car" route="-E11_to_E17" depart="575.0" departLane="allowed" />
    <vehicle id="E18_to_E7_92" type="standard_car" route="E18_to_E7" depart="576.0" departLane="allowed" />
    <vehicle id="-E11_to_E17_93" type="standard_car" route="-E11_to_E17" depart="576.0" departLane="allowed" />
    <vehicle id="E38_to_-E18_94" type="standard_car" route="E38_to_-E18" depart="577.0" departLane="allowed" />
    <vehicle id="E38_to_-E18_95" type="standard_car" route="E38_to_-E18" depart="578.0" departLane="allowed" />
    <vehicle id="E18_to_E7_96" type="standard_car" route="E18_to_E7" depart="583.0" departLane="allowed" />
    <vehicle id="-E11_to_E17_97" type="standard_car" route="-E11_to_E17" depart="583.0" departLane="allowed" />
    <vehicle id="-E17_to_E11_98" type="standard_car" route="-E17_to_E11" depart="584.0" departLane="allowed" />
    <vehicle id="E18_to_E11_99" type="standard_car" route="E18_to_E11" depart="585.0" departLane="allowed" />
    <vehicle id="E18_to_E7_100" type="standard_car" route="E18_to_E7" depart="585.0" departLane="allowed" />
    <vehicle id="E38_to_-E18_101" type="standard_car" route="E38_to_-E18" depart="591.0" departLane="allowed" />
    <vehicle id="-E17_to_E11_102" type="standard_car" route="-E17_to_E11" depart="592.0" departLane="allowed" />
    <vehicle id="E38_to_E17_103" type="standard_car" route="E38_to_E17" depart="594.0" departLane="allowed" />
    <vehicle id="E18_to_E7_104" type="standard_car" route="E18_to_E7" depart="598.0" departLane="allowed" />
    <vehicle id="-E17_to_-E18_105" type="standard_car" route="-E17_to_-E18" depart="602.0" departLane="allowed" />
    <vehicle id="-E17_to_E11_106" type="standard_car" route="-E17_to_E11" depart="606.0" departLane="allowed" />
    <vehicle id="-E17_to_-E18_107" type="standard_car" route="-E17_to_-E18" depart="606.0" departLane="allowed" />
    <vehicle id="E38_to_-E18_108" type="standard_car" route="E38_to_-E18" depart="607.0" departLane="allowed" />
    <vehicle id="E38_to_-E18_109" type="standard_car" route="E38_to_-E18" depart="614.0" departLane="allowed" />
    <vehicle id="E18_to_E7_110" type="standard_car" route="E18_to_E7" depart="616.0" departLane="allowed" />
    <vehicle id="E38_to_E17_111" type="standard_car" route="E38_to_E17" depart="616.0" departLane="allowed" />
    <vehicle id="-E11_to_-E18_112" type="standard_car" route="-E11_to_-E18" depart="619.0" departLane="allowed" />
    <vehicle id="E38_to_-E18_113" type="standard_car" route="E38_to_-E18" depart="622.0" departLane="allowed" />
    <vehicle id="E18_to_E7_114" type="standard_car" route="E18_to_E7" depart="631.0" departLane="allowed" />
    <vehicle id="E38_to_-E18_115" type="standard_car" route="E38_to_-E18" depart="631.0" departLane="allowed" />
    <vehicle id="-E11_to_E7_116" type="standard_car" route="-E11_to_E7" depart="631.0" departLane="allowed" />
    <vehicle id="-E17_to_-E18_117" type="standard_car" route="-E17_to_-E18" depart="632.0" departLane="allowed" />
    <vehicle id="E38_to_-E18_118" type="standard_car" route="E38_to_-E18" depart="632.0" departLane="allowed" />
    <vehicle id="E18_to_E11_119" type="standard_car" route="E18_to_E11" depart="636.0" departLane="allowed" />
    <vehicle id="E38_to_E17_120" type="standard_car" route="E38_to_E17" depart="636.0" departLane="allowed" />
    <vehicle id="E18_to_E11_121" type="standard_car" route="E18_to_E11" depart="636.0" departLane="allowed" />
    <vehicle id="-E17_to_E11_122" type="standard_car" route="-E17_to_E11" depart="636.0" departLane="allowed" />
    <vehicle id="E38_to_E17_123" type="standard_car" route="E38_to_E17" depart="636.0" departLane="allowed" />
    <vehicle id="E18_to_E11_124" type="standard_car" route="E18_to_E11" depart="639.0" departLane="allowed" />
    <vehicle id="-E11_to_-E18_125" type="standard_car" route="-E11_to_-E18" depart="640.0" departLane="allowed" />
    <vehicle id="E18_to_E11_126" type="standard_car" route="E18_to_E11" depart="644.0" departLane="allowed" />
    <vehicle id="E18_to_E7_127" type="standard_car" route="E18_to_E7" depart="644.0" departLane="allowed" />
    <vehicle id="-E11_to_E17_128" type="standard_car" route="-E11_to_E17" depart="654.0" departLane="allowed" />
    <vehicle id="-E11_to_E17_129" type="standard_car" route="-E11_to_E17" depart="669.0" departLane="allowed" />
    <vehicle id="E18_to_E7_130" type="standard_car" route="E18_to_E7" depart="669.0" departLane="allowed" />
    <vehicle id="-E11_to_E17_131" type="standard_car" route="-E11_to_E17" depart="675.0" departLane="allowed" />
    <vehicle id="E18_to_E7_132" type="standard_car" route="E18_to_E7" depart="675.0" departLane="allowed" />
    <vehicle id="-E17_to_E11_133" type="standard_car" route="-E17_to_E11" depart="676.0" departLane="allowed" />
    <vehicle id="E18_to_E11_134" type="standard_car" route="E18_to_E11" depart="677.0" departLane="allowed" />
    <vehicle id="-E17_to_E11_135" type="standard_car" route="-E17_to_E11" depart="677.0" departLane="allowed" />
    <vehicle id="E38_to_-E18_136" type="standard_car" route="E38_to_-E18" depart="679.0" departLane="allowed" />
    <vehicle id="E18_to_E7_137" type="standard_car" route="E18_to_E7" depart="681.0" departLane="allowed" />
    <vehicle id="E18_to_E11_138" type="standard_car" route="E18_to_E11" depart="681.0" departLane="allowed" />
    <vehicle id="E38_to_-E18_139" type="standard_car" route="E38_to_-E18" depart="687.0" departLane="allowed" />
    <vehicle id="E38_to_-E18_140" type="standard_car" route="E38_to_-E18" depart="691.0" departLane="allowed" />
    <vehicle id="-E11_to_-E18_141" type="standard_car" route="-E11_to_-E18" depart="694.0" departLane="allowed" />
    <vehicle id="E18_to_E7_142" type="standard_car" route="E18_to_E7" depart="697.0" departLane="allowed" />
    <vehicle id="-E17_to_-E18_143" type="standard_car" route="-E17_to_-E18" depart="700.0" departLane="allowed" />
    <vehicle id="-E11_to_E17_144" type="standard_car" route="-E11_to_E17" depart="700.0" departLane="allowed" />
    <vehicle id="-E11_to_E7_145" type="standard_car" route="-E11_to_E7" depart="703.0" departLane="allowed" />
    <vehicle id="E38_to_-E18_146" type="standard_car" route="E38_to_-E18" depart="708.0" departLane="allowed" />
    <vehicle id="E18_to_E7_147" type="standard_car" route="E18_to_E7" depart="712.0" departLane="allowed" />
    <vehicle id="-E17_to_E7_148" type="standard_car" route="-E17_to_E7" depart="718.0" departLane="allowed" />
    <vehicle id="-E17_to_E11_149" type="standard_car" route="-E17_to_E11" depart="720.0" departLane="allowed" />
    <vehicle id="E18_to_E7_150" type="standard_car" route="E18_to_E7" depart="720.0" departLane="allowed" />
    <vehicle id="E38_to_-E18_151" type="standard_car" route="E38_to_-E18" depart="720.0" departLane="allowed" />
    <vehicle id="E38_to_-E18_152" type="standard_car" route="E38_to_-E18" depart="721.0" departLane="allowed" />
    <vehicle id="E18_to_E7_153" type="standard_car" route="E18_to_E7" depart="724.0" departLane="allowed" />
    <vehicle id="-E11_to_E17_154" type="standard_car" route="-E11_to_E17" depart="728.0" departLane="allowed" />
    <vehicle id="-E17_to_E11_155" type="standard_car" route="-E17_to_E11" depart="732.0" departLane="allowed" />
    <vehicle id="E38_to_-E18_156" type="standard_car" route="E38_to_-E18" depart="734.0" departLane="allowed" />
    <vehicle id="-E11_to_E17_157" type="standard_car" route="-E11_to_E17" depart="742.0" departLane="allowed" />
    <vehicle id="-E11_to_E17_158" type="standard_car" route="-E11_to_E17" depart="749.0" departLane="allowed" />
    <vehicle id="-E11_to_E17_159" type="standard_car" route="-E11_to_E17" depart="749.0" departLane="allowed" />
    <vehicle id="-E11_to_E17_160" type="standard_car" route="-E11_to_E17" depart="750.0" departLane="allowed" />
    <vehicle id="E18_to_E7_161" type="standard_car" route="E18_to_E7" depart="751.0" departLane="allowed" />
    <vehicle id="-E11_to_E17_162" type="standard_car" route="-E11_to_E17" depart="752.0" departLane="allowed" />
    <vehicle id="-E11_to_E17_163" type="standard_car" route="-E11_to_E17" depart="753.0" departLane="allowed" />
    <vehicle id="E38_to_-E18_164" type="standard_car" route="E38_to_-E18" depart="753.0" departLane="allowed" />
    <vehicle id="E18_to_E7_165" type="standard_car" route="E18_to_E7" depart="755.0" departLane="allowed" />
    <vehicle id="E38_to_-E18_166" type="standard_car" route="E38_to_-E18" depart="757.0" departLane="allowed" />
    <vehicle id="-E11_to_E7_167" type="standard_car" route="-E11_to_E7" depart="758.0" departLane="allowed" />
    <vehicle id="E18_to_E7_168" type="standard_car" route="E18_to_E7" depart="758.0" departLane="allowed" />
    <vehicle id="-E11_to_E7_169" type="standard_car" route="-E11_to_E7" depart="759.0" departLane="allowed" />
    <vehicle id="-E17_to_E11_170" type="standard_car" route="-E17_to_E11" depart="764.0" departLane="allowed" />
    <vehicle id="-E11_to_-E18_171" type="standard_car" route="-E11_to_-E18" depart="767.0" departLane="allowed" />
    <vehicle id="-E11_to_E17_172" type="standard_car" route="-E11_to_E17" depart="775.0" departLane="allowed" />
    <vehicle id="-E17_to_E11_173" type="standard_car" route="-E17_to_E11" depart="781.0" departLane="allowed" />
    <vehicle id="-E11_to_-E18_174" type="standard_car" route="-E11_to_-E18" depart="782.0" departLane="allowed" />
    <vehicle id="E38_to_-E18_175" type="standard_car" route="E38_to_-E18" depart="784.0" departLane="allowed" />
    <vehicle id="-E11_to_E7_176" type="standard_car" route="-E11_to_E7" depart="789.0" departLane="allowed" />
    <vehicle id="E18_to_E17_177" type="standard_car" route="E18_to_E17" depart="789.0" departLane="allowed" />
    <vehicle id="E38_to_-E18_178" type="standard_car" route="E38_to_-E18" depart="790.0" departLane="allowed" />
    <vehicle id="-E11_to_E17_179" type="standard_car" route="-E11_to_E17" depart="793.0" departLane="allowed" />
    <vehicle id="E38_to_-E18_180" type="standard_car" route="E38_to_-E18" depart="794.0" departLane="allowed" />
    <vehicle id="E18_to_E7_181" type="standard_car" route="E18_to_E7" depart="798.0" departLane="allowed" />
    <vehicle id="-E17_to_E11_182" type="standard_car" route="-E17_to_E11" depart="801.0" departLane="allowed" />
    <vehicle id="E38_to_-E18_183" type="standard_car" route="E38_to_-E18" depart="801.0" departLane="allowed" />
    <vehicle id="E18_to_E11_184" type="standard_car" route="E18_to_E11" depart="805.0" departLane="allowed" />
    <vehicle id="E38_to_-E18_185" type="standard_car" route="E38_to_-E18" depart="809.0" departLane="allowed" />
    <vehicle id="E18_to_E7_186" type="standard_car" route="E18_to_E7" depart="810.0" departLane="allowed" />
    <vehicle id="E18_to_E7_187" type="standard_car" route="E18_to_E7" depart="810.0" departLane="allowed" />
    <vehicle id="E38_to_-E18_188" type="standard_car" route="E38_to_-E18" depart="815.0" departLane="allowed" />
    <vehicle id="-E11_to_E17_189" type="standard_car" route="-E11_to_E17" depart="815.0" departLane="allowed" />
    <vehicle id="E38_to_E11_190" type="standard_car" route="E38_to_E11" depart="816.0" departLane="allowed" />
    <vehicle id="E18_to_E17_191" type="standard_car" route="E18_to_E17" depart="817.0" departLane="allowed" />
    <vehicle id="-E17_to_E11_192" type="standard_car" route="-E17_to_E11" depart="819.0" departLane="allowed" />
    <vehicle id="-E17_to_E11_193" type="standard_car" route="-E17_to_E11" depart="826.0" departLane="allowed" />
    <vehicle id="E18_to_E17_194" type="standard_car" route="E18_to_E17" depart="828.0" departLane="allowed" />
    <vehicle id="-E11_to_E17_195" type="standard_car" route="-E11_to_E17" depart="842.0" departLane="allowed" />
    <vehicle id="-E17_to_E11_196" type="standard_car" route="-E17_to_E11" depart="843.0" departLane="allowed" />
    <vehicle id="-E17_to_E11_197" type="standard_car" route="-E17_to_E11" depart="844.0" departLane="allowed" />
    <vehicle id="E18_to_E7_198" type="standard_car" route="E18_to_E7" depart="849.0" departLane="allowed" />
    <vehicle id="E38_to_E17_199" type="standard_car" route="E38_to_E17" depart="850.0" departLane="allowed" />
    <vehicle id="-E17_to_-E18_200" type="standard_car" route="-E17_to_-E18" depart="862.0" departLane="allowed" />
    <vehicle id="E18_to_E11_201" type="standard_car" route="E18_to_E11" depart="868.0" departLane="allowed" />
    <vehicle id="E18_to_E17_202" type="standard_car" route="E18_to_E17" depart="870.0" departLane="allowed" />
    <vehicle id="E18_to_E7_203" type="standard_car" route="E18_to_E7" depart="871.0" departLane="allowed" />
    <vehicle id="E18_to_E7_204" type="standard_car" route="E18_to_E7" depart="873.0" departLane="allowed" />
    <vehicle id="-E11_to_E17_205" type="standard_car" route="-E11_to_E17" depart="874.0" departLane="allowed" />
    <vehicle id="-E17_to_-E18_206" type="standard_car" route="-E17_to_-E18" depart="875.0" departLane="allowed" />
    <vehicle id="E18_to_E7_207" type="standard_car" route="E18_to_E7" depart="877.0" departLane="allowed" />
    <vehicle id="E38_to_-E18_208" type="standard_car" route="E38_to_-E18" depart="880.0" departLane="allowed" />
    <vehicle id="E18_to_E7_209" type="standard_car" route="E18_to_E7" depart="882.0" departLane="allowed" />
    <vehicle id="E38_to_E11_210" type="standard_car" route="E38_to_E11" depart="883.0" departLane="allowed" />
    <vehicle id="-E11_to_E7_211" type="standard_car" route="-E11_to_E7" depart="887.0" departLane="allowed" />
    <vehicle id="E18_to_E11_212" type="standard_car" route="E18_to_E11" depart="887.0" departLane="allowed" />
    <vehicle id="E38_to_-E18_213" type="standard_car" route="E38_to_-E18" depart="889.0" departLane="allowed" />
    <vehicle id="-E17_to_E11_214" type="standard_car" route="-E17_to_E11" depart="890.0" departLane="allowed" />
    <vehicle id="E18_to_E11_215" type="standard_car" route="E18_to_E11" depart="890.0" departLane="allowed" />
    <vehicle id="E38_to_E17_216" type="standard_car" route="E38_to_E17" depart="892.0" departLane="allowed" />
    <vehicle id="-E17_to_E11_217" type="standard_car" route="-E17_to_E11" depart="897.0" departLane="allowed" />
    <vehicle id="E38_to_-E18_218" type="standard_car" route="E38_to_-E18" depart="900.0" departLane="allowed" />
    <vehicle id="-E17_to_E11_219" type="standard_car" route="-E17_to_E11" depart="900.0" departLane="allowed" />
    <vehicle id="E18_to_E7_220" type="standard_car" route="E18_to_E7" depart="904.0" departLane="allowed" />
    <vehicle id="E38_to_-E18_221" type="standard_car" route="E38_to_-E18" depart="904.0" departLane="allowed" />
    <vehicle id="E38_to_-E18_222" type="standard_car" route="E38_to_-E18" depart="906.0" departLane="allowed" />
    <vehicle id="-E11_to_E17_223" type="standard_car" route="-E11_to_E17" depart="907.0" departLane="allowed" />
    <vehicle id="E18_to_E11_224" type="standard_car" route="E18_to_E11" depart="914.0" departLane="allowed" />
    <vehicle id="-E17_to_E11_225" type="standard_car" route="-E17_to_E11" depart="914.0" departLane="allowed" />
    <vehicle id="E38_to_-E18_226" type="standard_car" route="E38_to_-E18" depart="915.0" departLane="allowed" />
    <vehicle id="E38_to_-E18_227" type="standard_car" route="E38_to_-E18" depart="917.0" departLane="allowed" />
    <vehicle id="E38_to_E17_228" type="standard_car" route="E38_to_E17" depart="919.0" departLane="allowed" />
    <vehicle id="E18_to_E7_229" type="standard_car" route="E18_to_E7" depart="924.0" departLane="allowed" />
    <vehicle id="-E17_to_-E18_230" type="standard_car" route="-E17_to_-E18" depart="925.0" departLane="allowed" />
    <vehicle id="E18_to_E7_231" type="standard_car" route="E18_to_E7" depart="926.0" departLane="allowed" />
    <vehicle id="E18_to_E7_232" type="standard_car" route="E18_to_E7" depart="926.0" departLane="allowed" />
    <vehicle id="E38_to_-E18_233" type="standard_car" route="E38_to_-E18" depart="928.0" departLane="allowed" />
    <vehicle id="-E11_to_E17_234" type="standard_car" route="-E11_to_E17" depart="938.0" departLane="allowed" />
    <vehicle id="E18_to_E11_235" type="standard_car" route="E18_to_E11" depart="938.0" departLane="allowed" />
    <vehicle id="-E17_to_E11_236" type="standard_car" route="-E17_to_E11" depart="938.0" departLane="allowed" />
    <vehicle id="-E11_to_E17_237" type="standard_car" route="-E11_to_E17" depart="939.0" departLane="allowed" />
    <vehicle id="-E11_to_E17_238" type="standard_car" route="-E11_to_E17" depart="943.0" departLane="allowed" />
    <vehicle id="-E17_to_E11_239" type="standard_car" route="-E17_to_E11" depart="945.0" departLane="allowed" />
    <vehicle id="-E17_to_E7_240" type="standard_car" route="-E17_to_E7" depart="946.0" departLane="allowed" />
    <vehicle id="E38_to_E11_241" type="standard_car" route="E38_to_E11" depart="946.0" departLane="allowed" />
    <vehicle id="E18_to_E7_242" type="standard_car" route="E18_to_E7" depart="947.0" departLane="allowed" />
    <vehicle id="E38_to_E11_243" type="standard_car" route="E38_to_E11" depart="948.0" departLane="allowed" />
    <vehicle id="E38_to_E17_244" type="standard_car" route="E38_to_E17" depart="953.0" departLane="allowed" />
    <vehicle id="E38_to_E11_245" type="standard_car" route="E38_to_E11" depart="954.0" departLane="allowed" />
    <vehicle id="-E17_to_E11_246" type="standard_car" route="-E17_to_E11" depart="955.0" departLane="allowed" />
    <vehicle id="-E17_to_E7_247" type="standard_car" route="-E17_to_E7" depart="957.0" departLane="allowed" />
    <vehicle id="E18_to_E17_248" type="standard_car" route="E18_to_E17" depart="958.0" departLane="allowed" />
    <vehicle id="-E11_to_E7_249" type="standard_car" route="-E11_to_E7" depart="960.0" departLane="allowed" />
    <vehicle id="E18_to_E17_250" type="standard_car" route="E18_to_E17" depart="960.0" departLane="allowed" />
    <vehicle id="E38_to_-E18_251" type="standard_car" route="E38_to_-E18" depart="962.0" departLane="allowed" />
    <vehicle id="-E11_to_E17_252" type="standard_car" route="-E11_to_E17" depart="963.0" departLane="allowed" />
    <vehicle id="-E11_to_E17_253" type="standard_car" route="-E11_to_E17" depart="964.0" departLane="allowed" />
    <vehicle id="E38_to_-E18_254" type="standard_car" route="E38_to_-E18" depart="966.0" departLane="allowed" />
    <vehicle id="-E17_to_E11_255" type="standard_car" route="-E17_to_E11" depart="970.0" departLane="allowed" />
    <vehicle id="-E11_to_E17_256" type="standard_car" route="-E11_to_E17" depart="973.0" departLane="allowed" />
    <vehicle id="-E17_to_E11_257" type="standard_car" route="-E17_to_E11" depart="973.0" departLane="allowed" />
    <vehicle id="-E11_to_E17_258" type="standard_car" route="-E11_to_E17" depart="974.0" departLane="allowed" />
    <vehicle id="-E11_to_E17_259" type="standard_car" route="-E11_to_E17" depart="974.0" departLane="allowed" />
    <vehicle id="-E17_to_E11_260" type="standard_car" route="-E17_to_E11" depart="975.0" departLane="allowed" />
    <vehicle id="E38_to_E17_261" type="standard_car" route="E38_to_E17" depart="981.0" departLane="allowed" />