<?xml version="1.0" encoding="UTF-8"?>

<!-- generated on 2022-06-10 09:58:05 by Eclipse SUMO netedit Version 1.10.0
<configuration xmlns:xsi="http://www.w3.org/2001/XMLSchema-instance" xsi:noNamespaceSchemaLocation="http://sumo.dlr.de/xsd/netconvertConfiguration.xsd">

    <input>
        <sumo-net-file value="UN.net.xml"/>
    </input>

    <output>
        <output-file value="UN.net.xml"/>
    </output>

    <processing>
        <geometry.min-radius.fix.railways value="false"/>
        <geometry.max-grade.fix value="false"/>
        <offset.disable-normalization value="true"/>
        <lefthand value="false"/>
    </processing>

    <junctions>
        <no-turnarounds value="true"/>
        <junctions.corner-detail value="5"/>
        <junctions.limit-turn-speed value="5.5"/>
        <rectangular-lane-cut value="false"/>
    </junctions>

    <pedestrian>
        <walkingareas value="false"/>
    </pedestrian>

    <report>
        <aggregate-warnings value="5"/>
    </report>

</configuration>
-->

<net version="1.9" junctionCornerDetail="5" limitTurnSpeed="5.50" xmlns:xsi="http://www.w3.org/2001/XMLSchema-instance" xsi:noNamespaceSchemaLocation="http://sumo.dlr.de/xsd/net_file.xsd">

    <location netOffset="0.00,0.00" convBoundary="-4400.00,-3000.00,4300.00,40800.00" origBoundary="-10000000000.00,-10000000000.00,10000000000.00,10000000000.00" projParameter="!"/>

    <edge id=":J25_0" function="internal">
        <lane id=":J25_0_0" index="0" speed="16.67" length="10.04" shape="-111.20,32104.00 -112.20,32101.31 -114.40,32100.00 -116.60,32098.69 -117.60,32096.00"/>
        <lane id=":J25_0_1" index="1" speed="16.67" length="10.04" shape="-108.00,32104.00 -109.00,32101.31 -111.20,32100.00 -113.40,32098.69 -114.40,32096.00"/>
        <lane id=":J25_0_2" index="2" speed="16.67" length="10.04" shape="-104.80,32104.00 -105.80,32101.31 -108.00,32100.00 -110.20,32098.69 -111.20,32096.00"/>
        <lane id=":J25_0_3" index="3" speed="16.67" length="10.04" shape="-101.60,32104.00 -102.60,32101.31 -104.80,32100.00 -107.00,32098.69 -108.00,32096.00"/>
        <lane id=":J25_0_4" index="4" speed="16.67" length="10.04" shape="-101.60,32104.00 -102.10,32101.54 -103.20,32100.00 -104.30,32098.46 -104.80,32096.00"/>
        <lane id=":J25_0_5" index="5" speed="16.67" length="10.04" shape="-101.60,32104.00 -101.60,32096.00"/>
    </edge>
    <edge id=":J38_0" function="internal">
        <lane id=":J38_0_0" index="0" speed="4.70" length="1.69" shape="-111.20,31005.30 -109.72,31006.12"/>
        <lane id=":J38_0_1" index="1" speed="4.54" length="1.55" shape="-108.00,31005.30 -107.46,31003.85"/>
        <lane id=":J38_0_2" index="2" speed="6.66" length="3.80" shape="-104.80,31005.30 -104.76,31004.40 -104.73,31003.34 -104.84,31002.33 -105.20,31001.59"/>
        <lane id=":J38_0_3" index="3" speed="8.36" length="6.24" shape="-101.60,31005.30 -101.68,31003.19 -101.93,31001.49 -102.35,31000.20 -102.94,30999.33"/>
    </edge>
    <edge id=":J38_4" function="internal">
        <lane id=":J38_4_0" index="0" speed="13.24" length="16.26" shape="-93.88,30990.28 -91.66,30993.12 -90.07,30996.58 -89.12,31000.63 -88.80,31005.30"/>
        <lane id=":J38_4_1" index="1" speed="12.20" length="13.75" shape="-96.15,30992.54 -94.33,30994.89 -93.04,30997.80 -92.26,31001.27 -92.00,31005.30"/>
        <lane id=":J38_4_2" index="2" speed="11.07" length="11.24" shape="-98.41,30994.80 -97.01,30996.66 -96.00,30999.03 -95.40,31001.91 -95.20,31005.30"/>
        <lane id=":J38_4_3" index="3" speed="9.81" length="8.74" shape="-100.67,30997.06 -99.68,30998.43 -98.97,31000.26 -98.54,31002.55 -98.40,31005.30"/>
    </edge>
    <edge id=":UN_0" function="internal">
        <lane id=":UN_0_0" index="0" speed="16.67" length="22.07" shape="-117.60,32010.40 -116.60,32004.09 -114.40,32000.00 -112.20,31995.91 -111.20,31989.60"/>
        <lane id=":UN_0_1" index="1" speed="16.67" length="22.07" shape="-114.40,32010.40 -113.40,32004.09 -111.20,32000.00 -109.00,31995.91 -108.00,31989.60"/>
        <lane id=":UN_0_2" index="2" speed="16.67" length="22.07" shape="-111.20,32010.40 -110.20,32004.09 -108.00,32000.00 -105.80,31995.91 -104.80,31989.60"/>
        <lane id=":UN_0_3" index="3" speed="16.67" length="22.07" shape="-108.00,32010.40 -107.00,32004.09 -104.80,32000.00 -102.60,31995.91 -101.60,31989.60"/>
    </edge>
    <edge id=":UN_4" function="internal">
        <lane id=":UN_4_0" index="0" speed="11.39" length="29.85" shape="-104.80,32010.40 -103.45,32003.75 -99.40,31999.00 -92.65,31996.15 -83.20,31995.20"/>
        <lane id=":UN_4_1" index="1" speed="10.41" length="24.73" shape="-101.60,32010.40 -100.45,32005.15 -97.00,32001.40 -91.25,31999.15 -83.20,31998.40"/>
    </edge>
    <edge id=":UN_6" function="internal">
        <lane id=":UN_6_0" index="0" speed="6.51" length="9.03" shape="-83.20,32004.80 -85.65,32005.15 -87.40,32006.20 -88.45,32007.95 -88.80,32010.40"/>
        <lane id=":UN_6_1" index="1" speed="7.33" length="11.73" shape="-83.20,32004.80 -87.05,32005.15 -89.80,32006.20 -91.45,32007.95 -92.00,32010.40"/>
        <lane id=":UN_6_2" index="2" speed="8.10" length="14.57" shape="-83.20,32004.80 -88.45,32005.15 -92.20,32006.20 -94.45,32007.95 -95.20,32010.40"/>
    </edge>
    <edge id=":UN_9" function="internal">
        <lane id=":UN_9_0" index="0" speed="10.96" length="27.54" shape="-83.20,32001.60 -92.65,32000.85 -99.40,31998.60 -103.45,31994.85 -104.80,31989.60"/>
        <lane id=":UN_9_1" index="1" speed="10.41" length="24.73" shape="-83.20,32001.60 -91.25,32000.85 -97.00,31998.60 -100.45,31994.85 -101.60,31989.60"/>
    </edge>
    <edge id=":UN_11" function="internal">
        <lane id=":UN_11_0" index="0" speed="6.51" length="9.03" shape="-88.80,31989.60 -88.45,31992.05 -87.40,31993.80 -85.65,31994.85 -83.20,31995.20"/>
    </edge>
    <edge id=":UN_12" function="internal">
        <lane id=":UN_12_0" index="0" speed="16.67" length="20.80" shape="-88.80,31989.60 -88.80,32010.40"/>
        <lane id=":UN_12_1" index="1" speed="16.67" length="20.80" shape="-92.00,31989.60 -92.00,32010.40"/>
        <lane id=":UN_12_2" index="2" speed="16.67" length="20.80" shape="-95.20,31989.60 -95.20,32010.40"/>
        <lane id=":UN_12_3" index="3" speed="16.67" length="20.80" shape="-98.40,31989.60 -98.40,32010.40"/>
    </edge>

    <edge id="-E23" from="J14" to="UN" priority="-1" length="1000.00">
        <lane id="-E23_0" index="0" speed="16.67" length="1000.00" shape="900.00,32004.80 -83.20,32004.80"/>
        <lane id="-E23_1" index="1" speed="16.67" length="1000.00" shape="900.00,32001.60 -83.20,32001.60"/>
    </edge>
    <edge id="-E37" from="J38" to="J35" priority="-1" shape="-99.90,31000.10 -100.00,31000.00">
        <lane id="-E37_0" index="0" speed="16.67" length="0.20" shape="-109.72,31006.12 -109.86,31005.97"/>
        <lane id="-E37_1" index="1" speed="16.67" length="0.20" shape="-107.46,31003.85 -107.60,31003.71"/>
        <lane id="-E37_2" index="2" speed="16.67" length="0.20" shape="-105.20,31001.59 -105.34,31001.45"/>
        <lane id="-E37_3" index="3" speed="16.67" length="0.20" shape="-102.94,30999.33 -103.08,30999.19"/>
    </edge>
    <edge id="-E8" from="UN" to="J38" priority="-1" length="1000.00">
        <lane id="-E8_0" index="0" speed="16.67" length="1000.00" shape="-111.20,31989.60 -111.20,31005.30"/>
        <lane id="-E8_1" index="1" speed="16.67" length="1000.00" shape="-108.00,31989.60 -108.00,31005.30"/>
        <lane id="-E8_2" index="2" speed="16.67" length="1000.00" shape="-104.80,31989.60 -104.80,31005.30"/>
        <lane id="-E8_3" index="3" speed="16.67" length="1000.00" shape="-101.60,31989.60 -101.60,31005.30"/>
    </edge>
    <edge id="E23" from="UN" to="J14" priority="-1" length="1000.00">
        <lane id="E23_0" index="0" speed="16.67" length="1000.00" shape="-83.20,31995.20 900.00,31995.20"/>
        <lane id="E23_1" index="1" speed="16.67" length="1000.00" shape="-83.20,31998.40 900.00,31998.40"/>
    </edge>
    <edge id="E24" from="UN" to="J15" priority="-1" length="1000.00">
        <lane id="E24_0" index="0" speed="16.67" length="1000.00" shape="-88.80,32010.40 -88.80,33000.00"/>
        <lane id="E24_1" index="1" speed="16.67" length="1000.00" shape="-92.00,32010.40 -92.00,33000.00"/>
        <lane id="E24_2" index="2" speed="16.67" length="1000.00" shape="-95.20,32010.40 -95.20,33000.00"/>
        <lane id="E24_3" index="3" speed="16.67" length="1000.00" shape="-98.40,32010.40 -98.40,33000.00"/>
    </edge>
    <edge id="E25" from="J15" to="J25" priority="-1" length="900.00">
        <lane id="E25_0" index="0" speed="16.67" length="900.00" shape="-111.20,33000.00 -111.20,32104.00"/>
        <lane id="E25_1" index="1" speed="16.67" length="900.00" shape="-108.00,33000.00 -108.00,32104.00"/>
        <lane id="E25_2" index="2" speed="16.67" length="900.00" shape="-104.80,33000.00 -104.80,32104.00"/>
        <lane id="E25_3" index="3" speed="16.67" length="900.00" shape="-101.60,33000.00 -101.60,32104.00"/>
    </edge>
    <edge id="E26" from="J25" to="UN" priority="-1">
        <lane id="E26_0" index="0" speed="16.67" length="85.60" shape="-117.60,32096.00 -117.60,32010.40"/>
        <lane id="E26_1" index="1" speed="16.67" length="85.60" shape="-114.40,32096.00 -114.40,32010.40"/>
        <lane id="E26_2" index="2" speed="16.67" length="85.60" shape="-111.20,32096.00 -111.20,32010.40"/>
        <lane id="E26_3" index="3" speed="16.67" length="85.60" shape="-108.00,32096.00 -108.00,32010.40"/>
        <lane id="E26_4" index="4" speed="16.67" length="85.60" shape="-104.80,32096.00 -104.80,32010.40"/>
        <lane id="E26_5" index="5" speed="16.67" length="85.60" shape="-101.60,32096.00 -101.60,32010.40"/>
    </edge>
    <edge id="E37" from="J35" to="J38" priority="-1" length="200.00" shape="-100.00,31000.00 -99.90,31000.10">
        <lane id="E37_0" index="0" speed="13.89" length="200.00" shape="-94.03,30990.14 -93.88,30990.28"/>
        <lane id="E37_1" index="1" speed="13.89" length="200.00" shape="-96.29,30992.40 -96.15,30992.54"/>
        <lane id="E37_2" index="2" speed="13.89" length="200.00" shape="-98.55,30994.66 -98.41,30994.80"/>
        <lane id="E37_3" index="3" speed="13.89" length="200.00" shape="-100.81,30996.92 -100.67,30997.06"/>
    </edge>
    <edge id="E8" from="J38" to="UN" priority="-1" length="1000.00">
        <lane id="E8_0" index="0" speed="16.67" length="1000.00" shape="-88.80,31005.30 -88.80,31989.60"/>
        <lane id="E8_1" index="1" speed="16.67" length="1000.00" shape="-92.00,31005.30 -92.00,31989.60"/>
        <lane id="E8_2" index="2" speed="16.67" length="1000.00" shape="-95.20,31005.30 -95.20,31989.60"/>
        <lane id="E8_3" index="3" speed="16.67" length="1000.00" shape="-98.40,31005.30 -98.40,31989.60"/>
    </edge>

    <tlLogic id="UN" type="static" programID="0" offset="0">
        <phase duration="10" state="GGGGrrrrrrGGGGG"/>
        <phase duration="5"  state="yyyyrrrrrryyyyy"/>
        <phase duration="10" state="rrrrGGrrrrrrrrr"/>
        <phase duration="5"  state="rrrryyrrrrrrrrr"/>
        <phase duration="10" state="rrrrrrGGGGGrrrr"/>
        <phase duration="5"  state="rrrrrryyyyyrrrr"/>
    </tlLogic>

    <junction id="J10" type="dead_end" x="-3100.00" y="-1400.00" incLanes="" intLanes="" shape="-3100.00,-1400.00"/>
    <junction id="J11" type="dead_end" x="-100.00" y="-3000.00" incLanes="" intLanes="" shape="-100.00,-3000.00"/>
    <junction id="J14" type="dead_end" x="900.00" y="32000.00" incLanes="E23_0 E23_1" intLanes="" shape="900.00,32000.00 900.00,31993.60 900.00,32000.00"/>
    <junction id="J15" type="dead_end" x="-100.00" y="33000.00" incLanes="E24_0 E24_1 E24_2 E24_3" intLanes="" shape="-100.00,33000.00 -87.20,33000.00 -100.00,33000.00"/>
    <junction id="J16" type="dead_end" x="3000.00" y="2500.00" incLanes="" intLanes="" shape="3000.00,2500.00"/>
    <junction id="J17" type="dead_end" x="-3100.00" y="2500.00" incLanes="" intLanes="" shape="-3100.00,2500.00"/>
    <junction id="J20" type="dead_end" x="-100.00" y="3000.00" incLanes="" intLanes="" shape="-100.00,3000.00"/>
    <junction id="J21" type="dead_end" x="3200.00" y="6900.00" incLanes="" intLanes="" shape="3200.00,6900.00"/>
    <junction id="J22" type="dead_end" x="-3100.00" y="6900.00" incLanes="" intLanes="" shape="-3100.00,6900.00"/>
    <junction id="J25" type="priority" x="-100.00" y="32100.00" incLanes="E25_0 E25_1 E25_2 E25_3" intLanes=":J25_0_0 :J25_0_1 :J25_0_2 :J25_0_3 :J25_0_4 :J25_0_5" shape="-112.80,32104.00 -100.00,32104.00 -100.00,32096.00 -119.20,32096.00 -118.73,32098.02 -117.54,32099.21 -114.46,32100.79 -113.27,32101.98">
        <request index="0" response="000000" foes="000000" cont="0"/>
        <request index="1" response="000000" foes="000000" cont="0"/>
        <request index="2" response="000000" foes="000000" cont="0"/>
        <request index="3" response="000000" foes="000000" cont="0"/>
        <request index="4" response="000000" foes="000000" cont="0"/>
        <request index="5" response="000000" foes="000000" cont="0"/>
    </junction>
    <junction id="J26" type="dead_end" x="-3900.00" y="10200.00" incLanes="" intLanes="" shape="-3900.00,10200.00"/>
    <junction id="J27" type="dead_end" x="-100.00" y="13300.00" incLanes="" intLanes="" shape="-100.00,13300.00"/>
    <junction id="J28" type="dead_end" x="4300.00" y="38000.00" incLanes="" intLanes="" shape="4300.00,38000.00"/>
    <junction id="J29" type="dead_end" x="-100.00" y="11700.00" incLanes="" intLanes="" shape="-100.00,11700.00"/>
    <junction id="J32" type="dead_end" x="3000.00" y="10200.00" incLanes="" intLanes="" shape="3000.00,10200.00"/>
    <junction id="J33" type="dead_end" x="0.00" y="8100.00" incLanes="" intLanes="" shape="0.00,8100.00"/>
    <junction id="J34" type="dead_end" x="0.00" y="11700.00" incLanes="" intLanes="" shape="0.00,11700.00"/>
    <junction id="J35" type="dead_end" x="-100.00" y="31000.00" incLanes="-E37_0 -E37_1 -E37_2 -E37_3" intLanes="" shape="-100.00,31000.00 -109.05,31009.05 -100.00,31000.00"/>
    <junction id="J36" type="dead_end" x="3000.00" y="24200.00" incLanes="" intLanes="" shape="3000.00,24200.00"/>
    <junction id="J37" type="dead_end" x="-3400.00" y="24200.00" incLanes="" intLanes="" shape="-3400.00,24200.00"/>
    <junction id="J38" type="priority" x="-100.00" y="31000.00" incLanes="-E8_0 -E8_1 -E8_2 -E8_3 E37_0 E37_1 E37_2 E37_3" intLanes=":J38_0_0 :J38_0_1 :J38_0_2 :J38_0_3 :J38_4_0 :J38_4_1 :J38_4_2 :J38_4_3" shape="-112.80,31005.30 -87.20,31005.30 -94.70,30987.20">
        <request index="0" response="00000000" foes="00000000" cont="0"/>
        <request index="1" response="00000000" foes="00000000" cont="0"/>
        <request index="2" response="00000000" foes="00000000" cont="0"/>
        <request index="3" response="00000000" foes="00000000" cont="0"/>
        <request index="4" response="00000000" foes="00000000" cont="0"/>
        <request index="5" response="00000000" foes="00000000" cont="0"/>
        <request index="6" response="00000000" foes="00000000" cont="0"/>
        <request index="7" response="00000000" foes="00000000" cont="0"/>
    </junction>
    <junction id="J39" type="dead_end" x="-100.00" y="40800.00" incLanes="" intLanes="" shape="-100.00,40800.00"/>
    <junction id="J40" type="dead_end" x="-4400.00" y="38000.00" incLanes="" intLanes="" shape="-4400.00,38000.00"/>
    <junction id="J42" type="dead_end" x="-100.00" y="3000.00" incLanes="" intLanes="" shape="-100.00,3000.00"/>
    <junction id="J8" type="dead_end" x="3000.00" y="-1400.00" incLanes="" intLanes="" shape="3000.00,-1400.00"/>
    <junction id="UN" type="traffic_light" x="-100.00" y="32000.00" incLanes="E26_0 E26_1 E26_2 E26_3 E26_4 E26_5 -E23_0 -E23_1 E8_0 E8_1 E8_2 E8_3" intLanes=":UN_0_0 :UN_0_1 :UN_0_2 :UN_0_3 :UN_4_0 :UN_4_1 :UN_6_0 :UN_6_1 :UN_6_2 :UN_9_0 :UN_9_1 :UN_11_0 :UN_12_0 :UN_12_1 :UN_12_2 :UN_12_3" shape="-119.20,32010.40 -87.20,32010.40 -86.76,32008.18 -86.20,32007.40 -85.42,32006.84 -84.42,32006.51 -83.20,32006.40 -83.20,31993.60 -85.42,31993.16 -86.20,31992.60 -86.76,31991.82 -87.09,31990.82 -87.20,31989.60 -112.80,31989.60 -113.27,31994.16 -114.46,31997.41 -117.54,32002.59 -118.73,32005.84">
        <request index="0"  response="0000000000000000" foes="0000011000000000" cont="0"/>
        <request index="1"  response="0000000000000000" foes="0000011000000000" cont="0"/>
        <request index="2"  response="0000000000000000" foes="0000011000000000" cont="0"/>
        <request index="3"  response="0000000000000000" foes="0000011000000000" cont="0"/>
        <request index="4"  response="1111100000000000" foes="1111111000000000" cont="0"/>
        <request index="5"  response="1111100000000000" foes="1111111000000000" cont="0"/>
        <request index="6"  response="1111000000000000" foes="1111000000000000" cont="0"/>
        <request index="7"  response="1111000000000000" foes="1111000000000000" cont="0"/>
        <request index="8"  response="1111000000000000" foes="1111000000000000" cont="0"/>
        <request index="9"  response="1111000000111111" foes="1111000000111111" cont="0"/>
        <request index="10" response="1111000000111111" foes="1111000000111111" cont="0"/>
        <request index="11" response="0000000000000000" foes="0000000000110000" cont="0"/>
        <request index="12" response="0000000000000000" foes="0000011111110000" cont="0"/>
        <request index="13" response="0000000000000000" foes="0000011111110000" cont="0"/>
        <request index="14" response="0000000000000000" foes="0000011111110000" cont="0"/>
        <request index="15" response="0000000000000000" foes="0000011111110000" cont="0"/>
    </junction>

    <connection from="-E23" to="E24" fromLane="0" toLane="0" via=":UN_6_0" tl="UN" linkIndex="6" dir="r" state="o"/>
    <connection from="-E23" to="E24" fromLane="0" toLane="1" via=":UN_6_1" tl="UN" linkIndex="7" dir="r" state="o"/>
    <connection from="-E23" to="E24" fromLane="0" toLane="2" uncontrolled="1" via=":UN_6_2" dir="r" state="m"/>
    <connection from="-E23" to="-E8" fromLane="1" toLane="2" via=":UN_9_0" tl="UN" linkIndex="8" dir="l" state="o"/>
    <connection from="-E23" to="-E8" fromLane="1" toLane="3" via=":UN_9_1" tl="UN" linkIndex="9" dir="l" state="o"/>
    <connection from="-E8" to="-E37" fromLane="0" toLane="0" via=":J38_0_0" dir="r" state="M"/>
    <connection from="-E8" to="-E37" fromLane="1" toLane="1" via=":J38_0_1" dir="r" state="M"/>
    <connection from="-E8" to="-E37" fromLane="2" toLane="2" via=":J38_0_2" dir="r" state="M"/>
    <connection from="-E8" to="-E37" fromLane="3" toLane="3" via=":J38_0_3" dir="r" state="M"/>
    <connection from="E25" to="E26" fromLane="0" toLane="0" via=":J25_0_0" dir="s" state="M"/>
    <connection from="E25" to="E26" fromLane="1" toLane="1" via=":J25_0_1" dir="s" state="M"/>
    <connection from="E25" to="E26" fromLane="2" toLane="2" via=":J25_0_2" dir="s" state="M"/>
    <connection from="E25" to="E26" fromLane="3" toLane="3" via=":J25_0_3" dir="s" state="M"/>
    <connection from="E25" to="E26" fromLane="3" toLane="4" via=":J25_0_4" dir="s" state="M"/>
    <connection from="E25" to="E26" fromLane="3" toLane="5" via=":J25_0_5" dir="s" state="M"/>
    <connection from="E26" to="-E8" fromLane="0" toLane="0" via=":UN_0_0" tl="UN" linkIndex="0" dir="s" state="O"/>
    <connection from="E26" to="-E8" fromLane="1" toLane="1" via=":UN_0_1" tl="UN" linkIndex="1" dir="s" state="O"/>
    <connection from="E26" to="-E8" fromLane="2" toLane="2" via=":UN_0_2" tl="UN" linkIndex="2" dir="s" state="O"/>
    <connection from="E26" to="-E8" fromLane="3" toLane="3" via=":UN_0_3" tl="UN" linkIndex="3" dir="s" state="O"/>
    <connection from="E26" to="E23" fromLane="4" toLane="0" via=":UN_4_0" tl="UN" linkIndex="4" dir="l" state="o"/>
    <connection from="E26" to="E23" fromLane="5" toLane="1" via=":UN_4_1" tl="UN" linkIndex="5" dir="l" state="o"/>
    <connection from="E37" to="E8" fromLane="0" toLane="0" via=":J38_4_0" dir="l" state="M"/>
    <connection from="E37" to="E8" fromLane="1" toLane="1" via=":J38_4_1" dir="l" state="M"/>
    <connection from="E37" to="E8" fromLane="2" toLane="2" via=":J38_4_2" dir="l" state="M"/>
    <connection from="E37" to="E8" fromLane="3" toLane="3" via=":J38_4_3" dir="l" state="M"/>
    <connection from="E8" to="E23" fromLane="0" toLane="0" via=":UN_11_0" tl="UN" linkIndex="10" dir="r" state="O"/>
    <connection from="E8" to="E24" fromLane="0" toLane="0" via=":UN_12_0" tl="UN" linkIndex="11" dir="s" state="O"/>
    <connection from="E8" to="E24" fromLane="1" toLane="1" via=":UN_12_1" tl="UN" linkIndex="12" dir="s" state="O"/>
    <connection from="E8" to="E24" fromLane="2" toLane="2" via=":UN_12_2" tl="UN" linkIndex="13" dir="s" state="O"/>
    <connection from="E8" to="E24" fromLane="3" toLane="3" via=":UN_12_3" tl="UN" linkIndex="14" dir="s" state="O"/>

    <connection from=":J25_0" to="E26" fromLane="0" toLane="0" dir="s" state="M"/>
    <connection from=":J25_0" to="E26" fromLane="1" toLane="1" dir="s" state="M"/>
    <connection from=":J25_0" to="E26" fromLane="2" toLane="2" dir="s" state="M"/>
    <connection from=":J25_0" to="E26" fromLane="3" toLane="3" dir="s" state="M"/>
    <connection from=":J25_0" to="E26" fromLane="4" toLane="4" dir="s" state="M"/>
    <connection from=":J25_0" to="E26" fromLane="5" toLane="5" dir="s" state="M"/>
    <connection from=":J38_0" to="-E37" fromLane="0" toLane="0" dir="r" state="M"/>
    <connection from=":J38_0" to="-E37" fromLane="1" toLane="1" dir="r" state="M"/>
    <connection from=":J38_0" to="-E37" fromLane="2" toLane="2" dir="r" state="M"/>
    <connection from=":J38_0" to="-E37" fromLane="3" toLane="3" dir="r" state="M"/>
    <connection from=":J38_4" to="E8" fromLane="0" toLane="0" dir="l" state="M"/>
    <connection from=":J38_4" to="E8" fromLane="1" toLane="1" dir="l" state="M"/>
    <connection from=":J38_4" to="E8" fromLane="2" toLane="2" dir="l" state="M"/>
    <connection from=":J38_4" to="E8" fromLane="3" toLane="3" dir="l" state="M"/>
    <connection from=":UN_0" to="-E8" fromLane="0" toLane="0" dir="s" state="M"/>
    <connection from=":UN_0" to="-E8" fromLane="1" toLane="1" dir="s" state="M"/>
    <connection from=":UN_0" to="-E8" fromLane="2" toLane="2" dir="s" state="M"/>
    <connection from=":UN_0" to="-E8" fromLane="3" toLane="3" dir="s" state="M"/>
    <connection from=":UN_4" to="E23" fromLane="0" toLane="0" dir="l" state="M"/>
    <connection from=":UN_4" to="E23" fromLane="1" toLane="1" dir="l" state="M"/>
    <connection from=":UN_6" to="E24" fromLane="0" toLane="0" dir="r" state="M"/>
    <connection from=":UN_6" to="E24" fromLane="1" toLane="1" dir="r" state="M"/>
    <connection from=":UN_6" to="E24" fromLane="2" toLane="2" dir="r" state="M"/>
    <connection from=":UN_9" to="-E8" fromLane="0" toLane="2" dir="l" state="M"/>
    <connection from=":UN_9" to="-E8" fromLane="1" toLane="3" dir="l" state="M"/>
    <connection from=":UN_11" to="E23" fromLane="0" toLane="0" dir="r" state="M"/>
    <connection from=":UN_12" to="E24" fromLane="0" toLane="0" dir="s" state="M"/>
    <connection from=":UN_12" to="E24" fromLane="1" toLane="1" dir="s" state="M"/>
    <connection from=":UN_12" to="E24" fromLane="2" toLane="2" dir="s" state="M"/>
    <connection from=":UN_12" to="E24" fromLane="3" toLane="3" dir="s" state="M"/>

</net>
