<routes>
    <vType accel="0.8" id="standard_car" decel="4.5" length="5.0" minGap="2.5" maxSpeed="16.67" sigma="0.5" />
    
    <route id="-E23_to_E24" edges="-E23 E24" />
    <route id="-E23_to_-E8" edges="-E23 -E8" />
    <route id="E26_to_-E8" edges="E26 -E8" />
    <route id="E26_to_E23" edges="E26 E23" />
    <route id="E8_to_E23" edges="E8 E23" />
    <route id="E8_to_E24" edges="E8 E24" />
    <vehicle id="E8_to_E23_0" type="standard_car" route="E8_to_E23" depart="8.0" departLane="random" />
    <vehicle id="E26_to_-E8_1" type="standard_car" route="E26_to_-E8" depart="8.0" departLane="random" />
    <vehicle id="E8_to_E24_2" type="standard_car" route="E8_to_E24" depart="66.0" departLane="random" />
    <vehicle id="E26_to_-E8_3" type="standard_car" route="E26_to_-E8" depart="100.0" departLane="random" />
    <vehicle id="E26_to_-E8_4" type="standard_car" route="E26_to_-E8" depart="117.0" departLane="random" />
    <vehicle id="-E23_to_-E8_5" type="standard_car" route="-E23_to_-E8" depart="119.0" departLane="random" />
    <vehicle id="-E23_to_-E8_6" type="standard_car" route="-E23_to_-E8" depart="122.0" departLane="random" />
    <vehicle id="E8_to_E23_7" type="standard_car" route="E8_to_E23" depart="122.0" departLane="random" />
    <vehicle id="E8_to_E23_8" type="standard_car" route="E8_to_E23" depart="146.0" departLane="random" />
    <vehicle id="E26_to_E23_9" type="standard_car" route="E26_to_E23" depart="149.0" departLane="random" />
    <vehicle id="E26_to_-E8_10" type="standard_car" route="E26_to_-E8" depart="149.0" departLane="random" />
    <vehicle id="-E23_to_-E8_11" type="standard_car" route="-E23_to_-E8" depart="161.0" departLane="random" />
    <vehicle id="E8_to_E24_12" type="standard_car" route="E8_to_E24" depart="169.0" departLane="random" />
    <vehicle id="E8_to_E24_13" type="standard_car" route="E8_to_E24" depart="174.0" departLane="random" />
    <vehicle id="E8_to_E24_14" type="standard_car" route="E8_to_E24" depart="187.0" departLane="random" />
    <vehicle id="E8_to_E24_15" type="standard_car" route="E8_to_E24" depart="213.0" departLane="random" />
    <vehicle id="-E23_to_-E8_16" type="standard_car" route="-E23_to_-E8" depart="214.0" departLane="random" />
    <vehicle id="E26_to_-E8_17" type="standard_car" route="E26_to_-E8" depart="219.0" departLane="random" />
    <vehicle id="E8_to_E24_18" type="standard_car" route="E8_to_E24" depart="222.0" departLane="random" />
    <vehicle id="E26_to_-E8_19" type="standard_car" route="E26_to_-E8" depart="225.0" departLane="random" />
    <vehicle id="-E23_to_E24_20" type="standard_car" route="-E23_to_E24" depart="227.0" departLane="random" />
    <vehicle id="E8_to_E24_21" type="standard_car" route="E8_to_E24" depart="233.0" departLane="random" />
    <vehicle id="E26_to_-E8_22" type="standard_car" route="E26_to_-E8" depart="243.0" departLane="random" />
    <vehicle id="E8_to_E24_23" type="standard_car" route="E8_to_E24" depart="255.0" departLane="random" />
    <vehicle id="E8_to_E24_24" type="standard_car" route="E8_to_E24" depart="258.0" departLane="random" />
    <vehicle id="-E23_to_E24_25" type="standard_car" route="-E23_to_E24" depart="269.0" departLane="random" />
    <vehicle id="E26_to_-E8_26" type="standard_car" route="E26_to_-E8" depart="278.0" departLane="random" />
    <vehicle id="E26_to_-E8_27" type="standard_car" route="E26_to_-E8" depart="279.0" departLane="random" />
    <vehicle id="E26_to_E23_28" type="standard_car" route="E26_to_E23" depart="285.0" departLane="random" />
    <vehicle id="E8_to_E24_29" type="standard_car" route="E8_to_E24" depart="290.0" departLane="random" />
    <vehicle id="-E23_to_-E8_30" type="standard_car" route="-E23_to_-E8" depart="295.0" departLane="random" />
    <vehicle id="E26_to_-E8_31" type="standard_car" route="E26_to_-E8" depart="300.0" departLane="random" />
    <vehicle id="E26_to_E23_32" type="standard_car" route="E26_to_E23" depart="305.0" departLane="random" />
    <vehicle id="E26_to_-E8_33" type="standard_car" route="E26_to_-E8" depart="305.0" departLane="random" />
    <vehicle id="E26_to_-E8_34" type="standard_car" route="E26_to_-E8" depart="311.0" departLane="random" />
    <vehicle id="E8_to_E24_35" type="standard_car" route="E8_to_E24" depart="322.0" departLane="random" />
    <vehicle id="E26_to_-E8_36" type="standard_car" route="E26_to_-E8" depart="324.0" departLane="random" />
    <vehicle id="E26_to_E23_37" type="standard_car" route="E26_to_E23" depart="326.0" departLane="random" />
    <vehicle id="E26_to_E23_38" type="standard_car" route="E26_to_E23" depart="326.0" departLane="random" />
    <vehicle id="E8_to_E24_39" type="standard_car" route="E8_to_E24" depart="342.0" departLane="random" />
    <vehicle id="E26_to_-E8_40" type="standard_car" route="E26_to_-E8" depart="347.0" departLane="random" />
    <vehicle id="E8_to_E23_41" type="standard_car" route="E8_to_E23" depart="353.0" departLane="random" />
    <vehicle id="E8_to_E24_42" type="standard_car" route="E8_to_E24" depart="355.0" departLane="random" />
    <vehicle id="E8_to_E24_43" type="standard_car" route="E8_to_E24" depart="356.0" departLane="random" />
    <vehicle id="E26_to_-E8_44" type="standard_car" route="E26_to_-E8" depart="357.0" departLane="random" />
    <vehicle id="E8_to_E24_45" type="standard_car" route="E8_to_E24" depart="360.0" departLane="random" />
    <vehicle id="E26_to_E23_46" type="standard_car" route="E26_to_E23" depart="361.0" departLane="random" />
    <vehicle id="E8_to_E24_47" type="standard_car" route="E8_to_E24" depart="363.0" departLane="random" />
    <vehicle id="E26_to_-E8_48" type="standard_car" route="E26_to_-E8" depart="364.0" departLane="random" />
    <vehicle id="E26_to_-E8_49" type="standard_car" route="E26_to_-E8" depart="372.0" departLane="random" />
    <vehicle id="E8_to_E24_50" type="standard_car" route="E8_to_E24" depart="372.0" departLane="random" />
    <vehicle id="E8_to_E24_51" type="standard_car" route="E8_to_E24" depart="372.0" departLane="random" />
    <vehicle id="E26_to_-E8_52" type="standard_car" route="E26_to_-E8" depart="373.0" departLane="random" />
    <vehicle id="E8_to_E23_53" type="standard_car" route="E8_to_E23" depart="375.0" departLane="random" />
    <vehicle id="E8_to_E24_54" type="standard_car" route="E8_to_E24" depart="379.0" departLane="random" />
    <vehicle id="-E23_to_E24_55" type="standard_car" route="-E23_to_E24" depart="380.0" departLane="random" />
    <vehicle id="E8_to_E24_56" type="standard_car" route="E8_to_E24" depart="390.0" departLane="random" />
    <vehicle id="E26_to_-E8_57" type="standard_car" route="E26_to_-E8" depart="394.0" departLane="random" />
    <vehicle id="E8_to_E24_58" type="standard_car" route="E8_to_E24" depart="394.0" departLane="random" />
    <vehicle id="E8_to_E24_59" type="standard_car" route="E8_to_E24" depart="396.0" departLane="random" />
    <vehicle id="-E23_to_E24_60" type="standard_car" route="-E23_to_E24" depart="400.0" departLane="random" />
    <vehicle id="E8_to_E23_61" type="standard_car" route="E8_to_E23" depart="402.0" departLane="random" />
    <vehicle id="E26_to_-E8_62" type="standard_car" route="E26_to_-E8" depart="403.0" departLane="random" />
    <vehicle id="E8_to_E24_63" type="standard_car" route="E8_to_E24" depart="404.0" departLane="random" />
    <vehicle id="E8_to_E23_64" type="standard_car" route="E8_to_E23" depart="409.0" departLane="random" />
    <vehicle id="E8_to_E24_65" type="standard_car" route="E8_to_E24" depart="410.0" departLane="random" />
    <vehicle id="E26_to_E23_66" type="standard_car" route="E26_to_E23" depart="412.0" departLane="random" />
    <vehicle id="E8_to_E24_67" type="standard_car" route="E8_to_E24" depart="414.0" departLane="random" />
    <vehicle id="E8_to_E24_68" type="standard_car" route="E8_to_E24" depart="416.0" departLane="random" />
    <vehicle id="E8_to_E23_69" type="standard_car" route="E8_to_E23" depart="421.0" departLane="random" />
    <vehicle id="E26_to_-E8_70" type="standard_car" route="E26_to_-E8" depart="422.0" departLane="random" />
    <vehicle id="E8_to_E24_71" type="standard_car" route="E8_to_E24" depart="427.0" departLane="random" />
    <vehicle id="E26_to_E23_72" type="standard_car" route="E26_to_E23" depart="438.0" departLane="random" />
    <vehicle id="E26_to_-E8_73" type="standard_car" route="E26_to_-E8" depart="442.0" departLane="random" />
    <vehicle id="-E23_to_E24_74" type="standard_car" route="-E23_to_E24" depart="442.0" departLane="random" />
    <vehicle id="E26_to_-E8_75" type="standard_car" route="E26_to_-E8" depart="443.0" departLane="random" />
    <vehicle id="E8_to_E23_76" type="standard_car" route="E8_to_E23" depart="449.0" departLane="random" />
    <vehicle id="E26_to_E23_77" type="standard_car" route="E26_to_E23" depart="459.0" departLane="random" />
    <vehicle id="E26_to_-E8_78" type="standard_car" route="E26_to_-E8" depart="461.0" departLane="random" />
    <vehicle id="-E23_to_-E8_79" type="standard_car" route="-E23_to_-E8" depart="463.0" departLane="random" />
    <vehicle id="-E23_to_-E8_80" type="standard_car" route="-E23_to_-E8" depart="469.0" departLane="random" />
    <vehicle id="E26_to_-E8_81" type="standard_car" route="E26_to_-E8" depart="470.0" departLane="random" />
    <vehicle id="E26_to_-E8_82" type="standard_car" route="E26_to_-E8" depart="472.0" departLane="random" />
    <vehicle id="E26_to_-E8_83" type="standard_car" route="E26_to_-E8" depart="480.0" departLane="random" />
    <vehicle id="E8_to_E24_84" type="standard_car" route="E8_to_E24" depart="494.0" departLane="random" />
    <vehicle id="E8_to_E24_85" type="standard_car" route="E8_to_E24" depart="494.0" departLane="random" />
    <vehicle id="E26_to_-E8_86" type="standard_car" route="E26_to_-E8" depart="495.0" departLane="random" />
    <vehicle id="E8_to_E24_87" type="standard_car" route="E8_to_E24" depart="502.0" departLane="random" />
    <vehicle id="-E23_to_-E8_88" type="standard_car" route="-E23_to_-E8" depart="502.0" departLane="random" />
    <vehicle id="E26_to_E23_89" type="standard_car" route="E26_to_E23" depart="503.0" departLane="random" />
    <vehicle id="-E23_to_E24_90" type="standard_car" route="-E23_to_E24" depart="505.0" departLane="random" />
    <vehicle id="E26_to_E23_91" type="standard_car" route="E26_to_E23" depart="507.0" departLane="random" />
    <vehicle id="-E23_to_E24_92" type="standard_car" route="-E23_to_E24" depart="508.0" departLane="random" />
    <vehicle id="E8_to_E24_93" type="standard_car" route="E8_to_E24" depart="508.0" departLane="random" />
    <vehicle id="E26_to_-E8_94" type="standard_car" route="E26_to_-E8" depart="509.0" departLane="random" />
    <vehicle id="E8_to_E23_95" type="standard_car" route="E8_to_E23" depart="509.0" departLane="random" />
    <vehicle id="E26_to_-E8_96" type="standard_car" route="E26_to_-E8" depart="510.0" departLane="random" />
    <vehicle id="E8_to_E24_97" type="standard_car" route="E8_to_E24" depart="512.0" departLane="random" />
    <vehicle id="E8_to_E24_98" type="standard_car" route="E8_to_E24" depart="512.0" departLane="random" />
    <vehicle id="E26_to_-E8_99" type="standard_car" route="E26_to_-E8" depart="515.0" departLane="random" />
    <vehicle id="E8_to_E24_100" type="standard_car" route="E8_to_E24" depart="517.0" departLane="random" />
    <vehicle id="E26_to_-E8_101" type="standard_car" route="E26_to_-E8" depart="518.0" departLane="random" />
    <vehicle id="E26_to_-E8_102" type="standard_car" route="E26_to_-E8" depart="519.0" departLane="random" />
    <vehicle id="E26_to_E23_103" type="standard_car" route="E26_to_E23" depart="524.0" departLane="random" />
    <vehicle id="E26_to_-E8_104" type="standard_car" route="E26_to_-E8" depart="531.0" departLane="random" />
    <vehicle id="E8_to_E24_105" type="standard_car" route="E8_to_E24" depart="532.0" departLane="random" />
    <vehicle id="-E23_to_E24_106" type="standard_car" route="-E23_to_E24" depart="533.0" departLane="random" />
    <vehicle id="E26_to_-E8_107" type="standard_car" route="E26_to_-E8" depart="539.0" departLane="random" />
    <vehicle id="E8_to_E24_108" type="standard_car" route="E8_to_E24" depart="541.0" departLane="random" />
    <vehicle id="-E23_to_-E8_109" type="standard_car" route="-E23_to_-E8" depart="542.0" departLane="random" />
    <vehicle id="E8_to_E24_110" type="standard_car" route="E8_to_E24" depart="548.0" departLane="random" />
    <vehicle id="E26_to_E23_111" type="standard_car" route="E26_to_E23" depart="551.0" departLane="random" />
    <vehicle id="E8_to_E24_112" type="standard_car" route="E8_to_E24" depart="551.0" departLane="random" />
    <vehicle id="E26_to_-E8_113" type="standard_car" route="E26_to_-E8" depart="552.0" departLane="random" />
    <vehicle id="E26_to_-E8_114" type="standard_car" route="E26_to_-E8" depart="560.0" departLane="random" />
    <vehicle id="E8_to_E23_115" type="standard_car" route="E8_to_E23" depart="561.0" departLane="random" />
    <vehicle id="-E23_to_-E8_116" type="standard_car" route="-E23_to_-E8" depart="562.0" departLane="random" />
    <vehicle id="E8_to_E23_117" type="standard_car" route="E8_to_E23" depart="564.0" departLane="random" />
    <vehicle id="E8_to_E24_118" type="standard_car" route="E8_to_E24" depart="567.0" departLane="random" />
    <vehicle id="E8_to_E24_119" type="standard_car" route="E8_to_E24" depart="568.0" departLane="random" />
    <vehicle id="E8_to_E23_120" type="standard_car" route="E8_to_E23" depart="568.0" departLane="random" />
    <vehicle id="-E23_to_-E8_121" type="standard_car" route="-E23_to_-E8" depart="569.0" departLane="random" />
    <vehicle id="E26_to_-E8_122" type="standard_car" route="E26_to_-E8" depart="571.0" departLane="random" />
    <vehicle id="E26_to_-E8_123" type="standard_car" route="E26_to_-E8" depart="571.0" departLane="random" />
    <vehicle id="E8_to_E23_124" type="standard_car" route="E8_to_E23" depart="575.0" departLane="random" />
    <vehicle id="-E23_to_-E8_125" type="standard_car" route="-E23_to_-E8" depart="575.0" departLane="random" />
    <vehicle id="E8_to_E24_126" type="standard_car" route="E8_to_E24" depart="581.0" departLane="random" />
    <vehicle id="E8_to_E24_127" type="standard_car" route="E8_to_E24" depart="582.0" departLane="random" />
    <vehicle id="E8_to_E24_128" type="standard_car" route="E8_to_E24" depart="585.0" departLane="random" />
    <vehicle id="E8_to_E24_129" type="standard_car" route="E8_to_E24" depart="588.0" departLane="random" />
    <vehicle id="E26_to_-E8_130" type="standard_car" route="E26_to_-E8" depart="588.0" departLane="random" />
    <vehicle id="E26_to_-E8_131" type="standard_car" route="E26_to_-E8" depart="589.0" departLane="random" />
    <vehicle id="-E23_to_E24_132" type="standard_car" route="-E23_to_E24" depart="589.0" departLane="random" />
    <vehicle id="E8_to_E24_133" type="standard_car" route="E8_to_E24" depart="595.0" departLane="random" />
    <vehicle id="E26_to_-E8_134" type="standard_car" route="E26_to_-E8" depart="596.0" departLane="random" />
    <vehicle id="-E23_to_-E8_135" type="standard_car" route="-E23_to_-E8" depart="597.0" departLane="random" />
    <vehicle id="E8_to_E24_136" type="standard_car" route="E8_to_E24" depart="599.0" departLane="random" />
    <vehicle id="-E23_to_E24_137" type="standard_car" route="-E23_to_E24" depart="601.0" departLane="random" />
    <vehicle id="E8_to_E24_138" type="standard_car" route="E8_to_E24" depart="602.0" departLane="random" />
    <vehicle id="E26_to_-E8_139" type="standard_car" route="E26_to_-E8" depart="602.0" departLane="random" />
    <vehicle id="E8_to_E23_140" type="standard_car" route="E8_to_E23" depart="602.0" departLane="random" />
    <vehicle id="E26_to_E23_141" type="standard_car" route="E26_to_E23" depart="604.0" departLane="random" />
    <vehicle id="E8_to_E23_142" type="standard_car" route="E8_to_E23" depart="606.0" departLane="random" />
    <vehicle id="-E23_to_-E8_143" type="standard_car" route="-E23_to_-E8" depart="611.0" departLane="random" />
    <vehicle id="E26_to_E23_144" type="standard_car" route="E26_to_E23" depart="612.0" departLane="random" />
    <vehicle id="-E23_to_-E8_145" type="standard_car" route="-E23_to_-E8" depart="612.0" departLane="random" />
    <vehicle id="E26_to_E23_146" type="standard_car" route="E26_to_E23" depart="614.0" departLane="random" />
    <vehicle id="E8_to_E24_147" type="standard_car" route="E8_to_E24" depart="615.0" departLane="random" />
    <vehicle id="E8_to_E24_148" type="standard_car" route="E8_to_E24" depart="618.0" departLane="random" />
    <vehicle id="E26_to_-E8_149" type="standard_car" route="E26_to_-E8" depart="619.0" departLane="random" />
    <vehicle id="E26_to_E23_150" type="standard_car" route="E26_to_E23" depart="622.0" departLane="random" />
    <vehicle id="-E23_to_E24_151" type="standard_car" route="-E23_to_E24" depart="622.0" departLane="random" />
    <vehicle id="E8_to_E23_152" type="standard_car" route="E8_to_E23" depart="624.0" departLane="random" />
    <vehicle id="E26_to_E23_153" type="standard_car" route="E26_to_E23" depart="626.0" departLane="random" />
    <vehicle id="E8_to_E23_154" type="standard_car" route="E8_to_E23" depart="627.0" departLane="random" />
    <vehicle id="E26_to_-E8_155" type="standard_car" route="E26_to_-E8" depart="631.0" departLane="random" />
    <vehicle id="E8_to_E24_156" type="standard_car" route="E8_to_E24" depart="640.0" departLane="random" />
    <vehicle id="-E23_to_-E8_157" type="standard_car" route="-E23_to_-E8" depart="642.0" departLane="random" />
    <vehicle id="E8_to_E23_158" type="standard_car" route="E8_to_E23" depart="643.0" departLane="random" />
    <vehicle id="E26_to_-E8_159" type="standard_car" route="E26_to_-E8" depart="647.0" departLane="random" />
    <vehicle id="E8_to_E24_160" type="standard_car" route="E8_to_E24" depart="647.0" departLane="random" />
    <vehicle id="E8_to_E24_161" type="standard_car" route="E8_to_E24" depart="647.0" departLane="random" />
    <vehicle id="E8_to_E24_162" type="standard_car" route="E8_to_E24" depart="647.0" departLane="random" />
    <vehicle id="-E23_to_E24_163" type="standard_car" route="-E23_to_E24" depart="652.0" departLane="random" />
    <vehicle id="E26_to_-E8_164" type="standard_car" route="E26_to_-E8" depart="656.0" departLane="random" />
    <vehicle id="E26_to_-E8_165" type="standard_car" route="E26_to_-E8" depart="659.0" departLane="random" />
    <vehicle id="E8_to_E24_166" type="standard_car" route="E8_to_E24" depart="660.0" departLane="random" />
    <vehicle id="-E23_to_E24_167" type="standard_car" route="-E23_to_E24" depart="663.0" departLane="random" />
    <vehicle id="E26_to_-E8_168" type="standard_car" route="E26_to_-E8" depart="663.0" departLane="random" />
    <vehicle id="E26_to_-E8_169" type="standard_car" route="E26_to_-E8" depart="664.0" departLane="random" />
    <vehicle id="E8_to_E24_170" type="standard_car" route="E8_to_E24" depart="665.0" departLane="random" />
    <vehicle id="E8_to_E24_171" type="standard_car" route="E8_to_E24" depart="666.0" departLane="random" />
    <vehicle id="E26_to_E23_172" type="standard_car" route="E26_to_E23" depart="669.0" departLane="random" />
    <vehicle id="-E23_to_E24_173" type="standard_car" route="-E23_to_E24" depart="678.0" departLane="random" />
    <vehicle id="E26_to_-E8_174" type="standard_car" route="E26_to_-E8" depart="678.0" departLane="random" />
    <vehicle id="E8_to_E23_175" type="standard_car" route="E8_to_E23" depart="679.0" departLane="random" />
    <vehicle id="E26_to_-E8_176" type="standard_car" route="E26_to_-E8" depart="680.0" departLane="random" />
    <vehicle id="E8_to_E24_177" type="standard_car" route="E8_to_E24" depart="680.0" departLane="random" />
    <vehicle id="E26_to_-E8_178" type="standard_car" route="E26_to_-E8" depart="681.0" departLane="random" />
    <vehicle id="E8_to_E23_179" type="standard_car" route="E8_to_E23" depart="681.0" departLane="random" />
    <vehicle id="E26_to_-E8_180" type="standard_car" route="E26_to_-E8" depart="684.0" departLane="random" />
    <vehicle id="E8_to_E23_181" type="standard_car" route="E8_to_E23" depart="684.0" departLane="random" />
    <vehicle id="E26_to_-E8_182" type="standard_car" route="E26_to_-E8" depart="686.0" departLane="random" />
    <vehicle id="E26_to_-E8_183" type="standard_car" route="E26_to_-E8" depart="686.0" departLane="random" />
    <vehicle id="E8_to_E24_184" type="standard_car" route="E8_to_E24" depart="687.0" departLane="random" />
    <vehicle id="E8_to_E24_185" type="standard_car" route="E8_to_E24" depart="687.0" departLane="random" />
    <vehicle id="E26_to_-E8_186" type="standard_car" route="E26_to_-E8" depart="695.0" departLane="random" />
    <vehicle id="E26_to_-E8_187" type="standard_car" route="E26_to_-E8" depart="700.0" departLane="random" />
    <vehicle id="E8_to_E23_188" type="standard_car" route="E8_to_E23" depart="707.0" departLane="random" />
    <vehicle id="E8_to_E24_189" type="standard_car" route="E8_to_E24" depart="707.0" departLane="random" />
    <vehicle id="E8_to_E23_190" type="standard_car" route="E8_to_E23" depart="710.0" departLane="random" />
    <vehicle id="-E23_to_-E8_191" type="standard_car" route="-E23_to_-E8" depart="710.0" departLane="random" />
    <vehicle id="E8_to_E24_192" type="standard_car" route="E8_to_E24" depart="713.0" departLane="random" />
    <vehicle id="E8_to_E24_193" type="standard_car" route="E8_to_E24" depart="715.0" departLane="random" />
    <vehicle id="E8_to_E24_194" type="standard_car" route="E8_to_E24" depart="715.0" departLane="random" />
    <vehicle id="-E23_to_E24_195" type="standard_car" route="-E23_to_E24" depart="715.0" departLane="random" />
    <vehicle id="E8_to_E24_196" type="standard_car" route="E8_to_E24" depart="716.0" departLane="random" />
    <vehicle id="E8_to_E24_197" type="standard_car" route="E8_to_E24" depart="717.0" departLane="random" />
    <vehicle id="E26_to_-E8_198" type="standard_car" route="E26_to_-E8" depart="717.0" departLane="random" />
    <vehicle id="E26_to_-E8_199" type="standard_car" route="E26_to_-E8" depart="718.0" departLane="random" />
    <vehicle id="E8_to_E24_200" type="standard_car" route="E8_to_E24" depart="722.0" departLane="random" />
    <vehicle id="-E23_to_E24_201" type="standard_car" route="-E23_to_E24" depart="725.0" departLane="random" />
    <vehicle id="E26_to_-E8_202" type="standard_car" route="E26_to_-E8" depart="725.0" departLane="random" />
    <vehicle id="E8_to_E24_203" type="standard_car" route="E8_to_E24" depart="725.0" departLane="random" />
    <vehicle id="E8_to_E23_204" type="standard_car" route="E8_to_E23" depart="726.0" departLane="random" />
    <vehicle id="E8_to_E23_205" type="standard_car" route="E8_to_E23" depart="729.0" departLane="random" />
    <vehicle id="E8_to_E24_206" type="standard_car" route="E8_to_E24" depart="731.0" departLane="random" />
    <vehicle id="E8_to_E24_207" type="standard_car" route="E8_to_E24" depart="731.0" departLane="random" />
    <vehicle id="E8_to_E23_208" type="standard_car" route="E8_to_E23" depart="731.0" departLane="random" />
    <vehicle id="E26_to_-E8_209" type="standard_car" route="E26_to_-E8" depart="734.0" departLane="random" />
    <vehicle id="E26_to_E23_210" type="standard_car" route="E26_to_E23" depart="734.0" departLane="random" />
    <vehicle id="E8_to_E24_211" type="standard_car" route="E8_to_E24" depart="735.0" departLane="random" />
    <vehicle id="E8_to_E23_212" type="standard_car" route="E8_to_E23" depart="736.0" departLane="random" />
    <vehicle id="E8_to_E24_213" type="standard_car" route="E8_to_E24" depart="737.0" departLane="random" />
    <vehicle id="E8_to_E23_214" type="standard_car" route="E8_to_E23" depart="738.0" departLane="random" />
    <vehicle id="E26_to_-E8_215" type="standard_car" route="E26_to_-E8" depart="746.0" departLane="random" />
    <vehicle id="E26_to_-E8_216" type="standard_car" route="E26_to_-E8" depart="747.0" departLane="random" />
    <vehicle id="E26_to_-E8_217" type="standard_car" route="E26_to_-E8" depart="748.0" departLane="random" />
    <vehicle id="E26_to_-E8_218" type="standard_car" route="E26_to_-E8" depart="750.0" departLane="random" />
    <vehicle id="E26_to_-E8_219" type="standard_car" route="E26_to_-E8" depart="752.0" departLane="random" />
    <vehicle id="E8_to_E24_220" type="standard_car" route="E8_to_E24" depart="753.0" departLane="random" />
    <vehicle id="E8_to_E24_221" type="standard_car" route="E8_to_E24" depart="754.0" departLane="random" />
    <vehicle id="E26_to_E23_222" type="standard_car" route="E26_to_E23" depart="755.0" departLane="random" />
    <vehicle id="-E23_to_E24_223" type="standard_car" route="-E23_to_E24" depart="757.0" departLane="random" />
    <vehicle id="E26_to_-E8_224" type="standard_car" route="E26_to_-E8" depart="757.0" departLane="random" />
    <vehicle id="E8_to_E24_225" type="standard_car" route="E8_to_E24" depart="757.0" departLane="random" />
    <vehicle id="E26_to_-E8_226" type="standard_car" route="E26_to_-E8" depart="758.0" departLane="random" />
    <vehicle id="-E23_to_E24_227" type="standard_car" route="-E23_to_E24" depart="760.0" departLane="random" />
    <vehicle id="E8_to_E24_228" type="standard_car" route="E8_to_E24" depart="760.0" departLane="random" />
    <vehicle id="-E23_to_-E8_229" type="standard_car" route="-E23_to_-E8" depart="761.0" departLane="random" />
    <vehicle id="E26_to_-E8_230" type="standard_car" route="E26_to_-E8" depart="763.0" departLane="random" />
    <vehicle id="E8_to_E23_231" type="standard_car" route="E8_to_E23" depart="765.0" departLane="random" />
    <vehicle id="E26_to_-E8_232" type="standard_car" route="E26_to_-E8" depart="766.0" departLane="random" />
    <vehicle id="-E23_to_-E8_233" type="standard_car" route="-E23_to_-E8" depart="767.0" departLane="random" />
    <vehicle id="E8_to_E24_234" type="standard_car" route="E8_to_E24" depart="767.0" departLane="random" />
    <vehicle id="-E23_to_E24_235" type="standard_car" route="-E23_to_E24" depart="768.0" departLane="random" />
    <vehicle id="E8_to_E24_236" type="standard_car" route="E8_to_E24" depart="771.0" departLane="random" />
    <vehicle id="-E23_to_-E8_237" type="standard_car" route="-E23_to_-E8" depart="772.0" departLane="random" />
    <vehicle id="E26_to_E23_238" type="standard_car" route="E26_to_E23" depart="775.0" departLane="random" />
    <vehicle id="-E23_to_E24_239" type="standard_car" route="-E23_to_E24" depart="777.0" departLane="random" />
    <vehicle id="E8_to_E23_240" type="standard_car" route="E8_to_E23" depart="779.0" departLane="random" />
    <vehicle id="-E23_to_E24_241" type="standard_car" route="-E23_to_E24" depart="784.0" departLane="random" />
    <vehicle id="E8_to_E24_242" type="standard_car" route="E8_to_E24" depart="786.0" departLane="random" />
    <vehicle id="E26_to_-E8_243" type="standard_car" route="E26_to_-E8" depart="787.0" departLane="random" />
    <vehicle id="E8_to_E24_244" type="standard_car" route="E8_to_E24" depart="787.0" departLane="random" />
    <vehicle id="-E23_to_-E8_245" type="standard_car" route="-E23_to_-E8" depart="787.0" departLane="random" />
    <vehicle id="E8_to_E24_246" type="standard_car" route="E8_to_E24" depart="791.0" departLane="random" />
    <vehicle id="E8_to_E24_247" type="standard_car" route="E8_to_E24" depart="791.0" departLane="random" />
    <vehicle id="E8_to_E24_248" type="standard_car" route="E8_to_E24" depart="791.0" departLane="random" />
    <vehicle id="E8_to_E23_249" type="standard_car" route="E8_to_E23" depart="791.0" departLane="random" />
    <vehicle id="E8_to_E24_250" type="standard_car" route="E8_to_E24" depart="794.0" departLane="random" />
    <vehicle id="E26_to_-E8_251" type="standard_car" route="E26_to_-E8" depart="803.0" departLane="random" />
    <vehicle id="E8_to_E24_252" type="standard_car" route="E8_to_E24" depart="805.0" departLane="random" />
    <vehicle id="E8_to_E24_253" type="standard_car" route="E8_to_E24" depart="808.0" departLane="random" />
    <vehicle id="E8_to_E23_254" type="standard_car" route="E8_to_E23" depart="812.0" departLane="random" />
    <vehicle id="E26_to_-E8_255" type="standard_car" route="E26_to_-E8" depart="814.0" departLane="random" />
    <vehicle id="E8_to_E24_256" type="standard_car" route="E8_to_E24" depart="815.0" departLane="random" />
    <vehicle id="-E23_to_E24_257" type="standard_car" route="-E23_to_E24" depart="816.0" departLane="random" />
    <vehicle id="E8_to_E23_258" type="standard_car" route="E8_to_E23" depart="819.0" departLane="random" />
    <vehicle id="E8_to_E24_259" type="standard_car" route="E8_to_E24" depart="820.0" departLane="random" />
    <vehicle id="E26_to_-E8_260" type="standard_car" route="E26_to_-E8" depart="820.0" departLane="random" />
    <vehicle id="E8_to_E24_261" type="standard_car" route="E8_to_E24" depart="826.0" departLane="random" />
    <vehicle id="E26_to_-E8_262" type="standard_car" route="E26_to_-E8" depart="826.0" departLane="random" />
    <vehicle id="E26_to_-E8_263" type="standard_car" route="E26_to_-E8" depart="828.0" departLane="random" />
    <vehicle id="E8_to_E23_264" type="standard_car" route="E8_to_E23" depart="829.0" departLane="random" />
    <vehicle id="E8_to_E24_265" type="standard_car" route="E8_to_E24" depart="830.0" departLane="random" />
    <vehicle id="E8_to_E23_266" type="standard_car" route="E8_to_E23" depart="832.0" departLane="random" />
    <vehicle id="-E23_to_E24_267" type="standard_car" route="-E23_to_E24" depart="834.0" departLane="random" />
    <vehicle id="-E23_to_-E8_268" type="standard_car" route="-E23_to_-E8" depart="834.0" departLane="random" />
    <vehicle id="E8_to_E24_269" type="standard_car" route="E8_to_E24" depart="839.0" departLane="random" />
    <vehicle id="E8_to_E24_270" type="standard_car" route="E8_to_E24" depart="846.0" departLane="random" />