<routes>
    <vType accel="0.8" id="standard_car" decel="4.5" length="5.0" minGap="2.5" maxSpeed="16.67" sigma="0.5" />
    
    <route id="-E23_to_E24" edges="-E23 E24" />
    <route id="-E23_to_-E8" edges="-E23 -E8" />
    <route id="E26_to_-E8" edges="E26 -E8" />
    <route id="E26_to_E23" edges="E26 E23" />
    <route id="E8_to_E23" edges="E8 E23" />
    <route id="E8_to_E24" edges="E8 E24" />
    <vehicles id="E26_to_-E8_0" type="standard_car" route="E26_to_-E8" depart="13.0" departLane="random" />
    <vehicles id="E26_to_-E8_1" type="standard_car" route="E26_to_-E8" depart="24.0" departLane="random" />
    <vehicle id="E8_to_E23_2" type="standard_car" route="E8_to_E23" depart="64.0" departLane="random" />
    <vehicles id="E8_to_E24_3" type="standard_car" route="E8_to_E24" depart="66.0" departLane="random" />
    <vehicles id="E26_to_-E8_4" type="standard_car" route="E26_to_-E8" depart="67.0" departLane="random" />
    <vehicles id="E26_to_-E8_5" type="standard_car" route="E26_to_-E8" depart="74.0" departLane="random" />
    <vehicle id="E8_to_E23_6" type="standard_car" route="E8_to_E23" depart="87.0" departLane="random" />
    <vehicles id="E26_to_-E8_7" type="standard_car" route="E26_to_-E8" depart="107.0" departLane="random" />
    <vehicle id="E26_to_E23_8" type="standard_car" route="E26_to_E23" depart="114.0" departLane="random" />
    <vehicles id="E8_to_E24_9" type="standard_car" route="E8_to_E24" depart="116.0" departLane="random" />
    <vehicles id="E26_to_-E8_10" type="standard_car" route="E26_to_-E8" depart="122.0" departLane="random" />
    <vehicle id="E26_to_E23_11" type="standard_car" route="E26_to_E23" depart="126.0" departLane="random" />
    <vehicles id="E26_to_-E8_12" type="standard_car" route="E26_to_-E8" depart="135.0" departLane="random" />
    <vehicles id="E26_to_-E8_13" type="standard_car" route="E26_to_-E8" depart="135.0" departLane="random" />
    <vehicle id="E26_to_E23_14" type="standard_car" route="E26_to_E23" depart="138.0" departLane="random" />
    <vehicle id="E8_to_E23_15" type="standard_car" route="E8_to_E23" depart="141.0" departLane="random" />
    <vehicles id="E8_to_E24_16" type="standard_car" route="E8_to_E24" depart="142.0" departLane="random" />
    <vehicles id="E8_to_E24_17" type="standard_car" route="E8_to_E24" depart="143.0" departLane="random" />
    <vehicle id="-E23_to_-E8_18" type="standard_car" route="-E23_to_-E8" depart="148.0" departLane="random" />
    <vehicles id="E8_to_E24_19" type="standard_car" route="E8_to_E24" depart="150.0" departLane="random" />
    <vehicles id="E8_to_E24_20" type="standard_car" route="E8_to_E24" depart="152.0" departLane="random" />
    <vehicles id="E8_to_E24_21" type="standard_car" route="E8_to_E24" depart="155.0" departLane="random" />
    <vehicles id="E26_to_-E8_22" type="standard_car" route="E26_to_-E8" depart="156.0" departLane="random" />
    <vehicles id="E8_to_E24_23" type="standard_car" route="E8_to_E24" depart="163.0" departLane="random" />
    <vehicles id="E26_to_-E8_24" type="standard_car" route="E26_to_-E8" depart="163.0" departLane="random" />
    <vehicle id="E8_to_E23_25" type="standard_car" route="E8_to_E23" depart="164.0" departLane="random" />
    <vehicle id="-E23_to_E24_26" type="standard_car" route="-E23_to_E24" depart="165.0" departLane="random" />
    <vehicles id="E26_to_-E8_27" type="standard_car" route="E26_to_-E8" depart="168.0" departLane="random" />
    <vehicles id="E26_to_-E8_28" type="standard_car" route="E26_to_-E8" depart="170.0" departLane="random" />
    <vehicle id="-E23_to_E24_29" type="standard_car" route="-E23_to_E24" depart="170.0" departLane="random" />
    <vehicle id="-E23_to_E24_30" type="standard_car" route="-E23_to_E24" depart="177.0" departLane="random" />
    <vehicle id="E26_to_E23_31" type="standard_car" route="E26_to_E23" depart="180.0" departLane="random" />
    <vehicle id="E26_to_E23_32" type="standard_car" route="E26_to_E23" depart="183.0" departLane="random" />
    <vehicle id="E8_to_E23_33" type="standard_car" route="E8_to_E23" depart="194.0" departLane="random" />
    <vehicle id="E26_to_E23_34" type="standard_car" route="E26_to_E23" depart="196.0" departLane="random" />
    <vehicles id="E26_to_-E8_35" type="standard_car" route="E26_to_-E8" depart="196.0" departLane="random" />
    <vehicle id="E8_to_E23_36" type="standard_car" route="E8_to_E23" depart="197.0" departLane="random" />
    <vehicle id="E8_to_E23_37" type="standard_car" route="E8_to_E23" depart="200.0" departLane="random" />
    <vehicle id="-E23_to_E24_38" type="standard_car" route="-E23_to_E24" depart="200.0" departLane="random" />
    <vehicles id="E26_to_-E8_39" type="standard_car" route="E26_to_-E8" depart="201.0" departLane="random" />
    <vehicle id="-E23_to_-E8_40" type="standard_car" route="-E23_to_-E8" depart="201.0" departLane="random" />
    <vehicles id="E26_to_-E8_41" type="standard_car" route="E26_to_-E8" depart="203.0" departLane="random" />
    <vehicle id="E26_to_E23_42" type="standard_car" route="E26_to_E23" depart="204.0" departLane="random" />
    <vehicle id="-E23_to_E24_43" type="standard_car" route="-E23_to_E24" depart="211.0" departLane="random" />
    <vehicles id="E26_to_-E8_44" type="standard_car" route="E26_to_-E8" depart="213.0" departLane="random" />
    <vehicle id="-E23_to_E24_45" type="standard_car" route="-E23_to_E24" depart="213.0" departLane="random" />
    <vehicles id="E8_to_E24_46" type="standard_car" route="E8_to_E24" depart="218.0" departLane="random" />
    <vehicles id="E26_to_-E8_47" type="standard_car" route="E26_to_-E8" depart="218.0" departLane="random" />
    <vehicles id="E26_to_-E8_48" type="standard_car" route="E26_to_-E8" depart="225.0" departLane="random" />
    <vehicle id="E26_to_E23_49" type="standard_car" route="E26_to_E23" depart="233.0" departLane="random" />
    <vehicles id="E8_to_E24_50" type="standard_car" route="E8_to_E24" depart="240.0" departLane="random" />
    <vehicles id="E8_to_E24_51" type="standard_car" route="E8_to_E24" depart="242.0" departLane="random" />
    <vehicle id="E26_to_E23_52" type="standard_car" route="E26_to_E23" depart="253.0" departLane="random" />
    <vehicles id="E8_to_E24_53" type="standard_car" route="E8_to_E24" depart="256.0" departLane="random" />
    <vehicle id="E26_to_E23_54" type="standard_car" route="E26_to_E23" depart="257.0" departLane="random" />
    <vehicles id="E8_to_E24_55" type="standard_car" route="E8_to_E24" depart="266.0" departLane="random" />
    <vehicles id="E8_to_E24_56" type="standard_car" route="E8_to_E24" depart="272.0" departLane="random" />
    <vehicle id="-E23_to_E24_57" type="standard_car" route="-E23_to_E24" depart="280.0" departLane="random" />
    <vehicles id="E26_to_-E8_58" type="standard_car" route="E26_to_-E8" depart="281.0" departLane="random" />
    <vehicles id="E26_to_-E8_59" type="standard_car" route="E26_to_-E8" depart="282.0" departLane="random" />
    <vehicle id="-E23_to_E24_60" type="standard_car" route="-E23_to_E24" depart="288.0" departLane="random" />
    <vehicles id="E26_to_-E8_61" type="standard_car" route="E26_to_-E8" depart="291.0" departLane="random" />
    <vehicles id="E8_to_E24_62" type="standard_car" route="E8_to_E24" depart="291.0" departLane="random" />
    <vehicles id="E8_to_E24_63" type="standard_car" route="E8_to_E24" depart="292.0" departLane="random" />
    <vehicles id="E8_to_E24_64" type="standard_car" route="E8_to_E24" depart="294.0" departLane="random" />
    <vehicle id="E26_to_E23_65" type="standard_car" route="E26_to_E23" depart="298.0" departLane="random" />
    <vehicles id="E26_to_-E8_66" type="standard_car" route="E26_to_-E8" depart="301.0" departLane="random" />
    <vehicle id="-E23_to_-E8_67" type="standard_car" route="-E23_to_-E8" depart="310.0" departLane="random" />
    <vehicles id="E26_to_-E8_68" type="standard_car" route="E26_to_-E8" depart="312.0" departLane="random" />
    <vehicles id="E8_to_E24_69" type="standard_car" route="E8_to_E24" depart="313.0" departLane="random" />
    <vehicles id="E26_to_-E8_70" type="standard_car" route="E26_to_-E8" depart="314.0" departLane="random" />
    <vehicle id="-E23_to_E24_71" type="standard_car" route="-E23_to_E24" depart="314.0" departLane="random" />
    <vehicle id="E26_to_E23_72" type="standard_car" route="E26_to_E23" depart="315.0" departLane="random" />
    <vehicles id="E8_to_E24_73" type="standard_car" route="E8_to_E24" depart="315.0" departLane="random" />
    <vehicles id="E26_to_-E8_74" type="standard_car" route="E26_to_-E8" depart="318.0" departLane="random" />
    <vehicles id="E8_to_E24_75" type="standard_car" route="E8_to_E24" depart="319.0" departLane="random" />
    <vehicles id="E8_to_E24_76" type="standard_car" route="E8_to_E24" depart="323.0" departLane="random" />
    <vehicle id="-E23_to_-E8_77" type="standard_car" route="-E23_to_-E8" depart="324.0" departLane="random" />
    <vehicles id="E8_to_E24_78" type="standard_car" route="E8_to_E24" depart="325.0" departLane="random" />
    <vehicle id="E26_to_E23_79" type="standard_car" route="E26_to_E23" depart="328.0" departLane="random" />
    <vehicles id="E8_to_E24_80" type="standard_car" route="E8_to_E24" depart="328.0" departLane="random" />
    <vehicle id="-E23_to_-E8_81" type="standard_car" route="-E23_to_-E8" depart="337.0" departLane="random" />
    <vehicles id="E26_to_-E8_82" type="standard_car" route="E26_to_-E8" depart="338.0" departLane="random" />
    <vehicles id="E26_to_-E8_83" type="standard_car" route="E26_to_-E8" depart="341.0" departLane="random" />
    <vehicles id="E8_to_E24_84" type="standard_car" route="E8_to_E24" depart="343.0" departLane="random" />
    <vehicle id="E26_to_E23_85" type="standard_car" route="E26_to_E23" depart="346.0" departLane="random" />
    <vehicles id="E26_to_-E8_86" type="standard_car" route="E26_to_-E8" depart="347.0" departLane="random" />
    <vehicle id="-E23_to_-E8_87" type="standard_car" route="-E23_to_-E8" depart="348.0" departLane="random" />
    <vehicles id="E26_to_-E8_88" type="standard_car" route="E26_to_-E8" depart="350.0" departLane="random" />
    <vehicle id="-E23_to_E24_89" type="standard_car" route="-E23_to_E24" depart="354.0" departLane="random" />
    <vehicles id="E26_to_-E8_90" type="standard_car" route="E26_to_-E8" depart="358.0" departLane="random" />
    <vehicle id="E26_to_E23_91" type="standard_car" route="E26_to_E23" depart="363.0" departLane="random" />
    <vehicle id="-E23_to_E24_92" type="standard_car" route="-E23_to_E24" depart="374.0" departLane="random" />
    <vehicles id="E8_to_E24_93" type="standard_car" route="E8_to_E24" depart="376.0" departLane="random" />
    <vehicles id="E8_to_E24_94" type="standard_car" route="E8_to_E24" depart="377.0" departLane="random" />
    <vehicle id="E8_to_E23_95" type="standard_car" route="E8_to_E23" depart="386.0" departLane="random" />
    <vehicles id="E26_to_-E8_96" type="standard_car" route="E26_to_-E8" depart="387.0" departLane="random" />
    <vehicles id="E8_to_E24_97" type="standard_car" route="E8_to_E24" depart="394.0" departLane="random" />
    <vehicle id="-E23_to_E24_98" type="standard_car" route="-E23_to_E24" depart="394.0" departLane="random" />
    <vehicles id="E8_to_E24_99" type="standard_car" route="E8_to_E24" depart="396.0" departLane="random" />
    <vehicle id="E26_to_E23_100" type="standard_car" route="E26_to_E23" depart="397.0" departLane="random" />
    <vehicle id="-E23_to_-E8_101" type="standard_car" route="-E23_to_-E8" depart="403.0" departLane="random" />
    <vehicles id="E8_to_E24_102" type="standard_car" route="E8_to_E24" depart="405.0" departLane="random" />
    <vehicle id="E8_to_E23_103" type="standard_car" route="E8_to_E23" depart="405.0" departLane="random" />
    <vehicles id="E26_to_-E8_104" type="standard_car" route="E26_to_-E8" depart="406.0" departLane="random" />
    <vehicle id="E26_to_E23_105" type="standard_car" route="E26_to_E23" depart="408.0" departLane="random" />
    <vehicle id="-E23_to_-E8_106" type="standard_car" route="-E23_to_-E8" depart="408.0" departLane="random" />
    <vehicles id="E8_to_E24_107" type="standard_car" route="E8_to_E24" depart="411.0" departLane="random" />
    <vehicles id="E8_to_E24_108" type="standard_car" route="E8_to_E24" depart="411.0" departLane="random" />
    <vehicle id="E8_to_E23_109" type="standard_car" route="E8_to_E23" depart="416.0" departLane="random" />
    <vehicle id="-E23_to_-E8_110" type="standard_car" route="-E23_to_-E8" depart="417.0" departLane="random" />
    <vehicle id="E8_to_E23_111" type="standard_car" route="E8_to_E23" depart="419.0" departLane="random" />
    <vehicles id="E26_to_-E8_112" type="standard_car" route="E26_to_-E8" depart="428.0" departLane="random" />
    <vehicles id="E8_to_E24_113" type="standard_car" route="E8_to_E24" depart="431.0" departLane="random" />
    <vehicles id="E8_to_E24_114" type="standard_car" route="E8_to_E24" depart="432.0" departLane="random" />
    <vehicles id="E8_to_E24_115" type="standard_car" route="E8_to_E24" depart="437.0" departLane="random" />
    <vehicle id="-E23_to_-E8_116" type="standard_car" route="-E23_to_-E8" depart="437.0" departLane="random" />
    <vehicle id="E26_to_E23_117" type="standard_car" route="E26_to_E23" depart="438.0" departLane="random" />
    <vehicle id="E26_to_E23_118" type="standard_car" route="E26_to_E23" depart="438.0" departLane="random" />
    <vehicle id="E8_to_E23_119" type="standard_car" route="E8_to_E23" depart="440.0" departLane="random" />
    <vehicle id="-E23_to_E24_120" type="standard_car" route="-E23_to_E24" depart="441.0" departLane="random" />
    <vehicle id="-E23_to_E24_121" type="standard_car" route="-E23_to_E24" depart="441.0" departLane="random" />
    <vehicles id="E26_to_-E8_122" type="standard_car" route="E26_to_-E8" depart="448.0" departLane="random" />
    <vehicles id="E26_to_-E8_123" type="standard_car" route="E26_to_-E8" depart="448.0" departLane="random" />
    <vehicle id="-E23_to_-E8_124" type="standard_car" route="-E23_to_-E8" depart="450.0" departLane="random" />
    <vehicle id="E26_to_E23_125" type="standard_car" route="E26_to_E23" depart="451.0" departLane="random" />
    <vehicle id="-E23_to_-E8_126" type="standard_car" route="-E23_to_-E8" depart="452.0" departLane="random" />
    <vehicle id="-E23_to_-E8_127" type="standard_car" route="-E23_to_-E8" depart="456.0" departLane="random" />
    <vehicle id="-E23_to_-E8_128" type="standard_car" route="-E23_to_-E8" depart="457.0" departLane="random" />
    <vehicle id="E26_to_E23_129" type="standard_car" route="E26_to_E23" depart="458.0" departLane="random" />
    <vehicle id="-E23_to_E24_130" type="standard_car" route="-E23_to_E24" depart="460.0" departLane="random" />
    <vehicles id="E8_to_E24_131" type="standard_car" route="E8_to_E24" depart="461.0" departLane="random" />
    <vehicle id="-E23_to_-E8_132" type="standard_car" route="-E23_to_-E8" depart="461.0" departLane="random" />
    <vehicles id="E26_to_-E8_133" type="standard_car" route="E26_to_-E8" depart="462.0" departLane="random" />
    <vehicle id="E26_to_E23_134" type="standard_car" route="E26_to_E23" depart="463.0" departLane="random" />
    <vehicle id="-E23_to_-E8_135" type="standard_car" route="-E23_to_-E8" depart="465.0" departLane="random" />
    <vehicles id="E8_to_E24_136" type="standard_car" route="E8_to_E24" depart="467.0" departLane="random" />
    <vehicles id="E26_to_-E8_137" type="standard_car" route="E26_to_-E8" depart="470.0" departLane="random" />
    <vehicle id="E8_to_E23_138" type="standard_car" route="E8_to_E23" depart="471.0" departLane="random" />
    <vehicle id="-E23_to_E24_139" type="standard_car" route="-E23_to_E24" depart="471.0" departLane="random" />
    <vehicles id="E26_to_-E8_140" type="standard_car" route="E26_to_-E8" depart="471.0" departLane="random" />
    <vehicles id="E26_to_-E8_141" type="standard_car" route="E26_to_-E8" depart="472.0" departLane="random" />
    <vehicles id="E8_to_E24_142" type="standard_car" route="E8_to_E24" depart="472.0" departLane="random" />
    <vehicle id="E26_to_E23_143" type="standard_car" route="E26_to_E23" depart="474.0" departLane="random" />
    <vehicles id="E8_to_E24_144" type="standard_car" route="E8_to_E24" depart="474.0" departLane="random" />
    <vehicle id="-E23_to_E24_145" type="standard_car" route="-E23_to_E24" depart="474.0" departLane="random" />
    <vehicles id="E26_to_-E8_146" type="standard_car" route="E26_to_-E8" depart="476.0" departLane="random" />
    <vehicles id="E8_to_E24_147" type="standard_car" route="E8_to_E24" depart="476.0" departLane="random" />
    <vehicles id="E26_to_-E8_148" type="standard_car" route="E26_to_-E8" depart="478.0" departLane="random" />
    <vehicles id="E8_to_E24_149" type="standard_car" route="E8_to_E24" depart="478.0" departLane="random" />
    <vehicles id="E26_to_-E8_150" type="standard_car" route="E26_to_-E8" depart="478.0" departLane="random" />
    <vehicles id="E8_to_E24_151" type="standard_car" route="E8_to_E24" depart="478.0" departLane="random" />
    <vehicles id="E26_to_-E8_152" type="standard_car" route="E26_to_-E8" depart="483.0" departLane="random" />
    <vehicles id="E8_to_E24_153" type="standard_car" route="E8_to_E24" depart="484.0" departLane="random" />
    <vehicle id="-E23_to_E24_154" type="standard_car" route="-E23_to_E24" depart="485.0" departLane="random" />
    <vehicles id="E26_to_-E8_155" type="standard_car" route="E26_to_-E8" depart="487.0" departLane="random" />
    <vehicles id="E26_to_-E8_156" type="standard_car" route="E26_to_-E8" depart="488.0" departLane="random" />
    <vehicle id="-E23_to_-E8_157" type="standard_car" route="-E23_to_-E8" depart="488.0" departLane="random" />
    <vehicles id="E8_to_E24_158" type="standard_car" route="E8_to_E24" depart="496.0" departLane="random" />
    <vehicles id="E26_to_-E8_159" type="standard_car" route="E26_to_-E8" depart="497.0" departLane="random" />
    <vehicles id="E8_to_E24_160" type="standard_car" route="E8_to_E24" depart="501.0" departLane="random" />
    <vehicles id="E8_to_E24_161" type="standard_car" route="E8_to_E24" depart="502.0" departLane="random" />
    <vehicle id="E26_to_E23_162" type="standard_car" route="E26_to_E23" depart="503.0" departLane="random" />
    <vehicle id="E8_to_E23_163" type="standard_car" route="E8_to_E23" depart="504.0" departLane="random" />
    <vehicles id="E8_to_E24_164" type="standard_car" route="E8_to_E24" depart="510.0" departLane="random" />
    <vehicle id="E26_to_E23_165" type="standard_car" route="E26_to_E23" depart="515.0" departLane="random" />
    <vehicles id="E26_to_-E8_166" type="standard_car" route="E26_to_-E8" depart="518.0" departLane="random" />
    <vehicles id="E8_to_E24_167" type="standard_car" route="E8_to_E24" depart="518.0" departLane="random" />
    <vehicles id="E8_to_E24_168" type="standard_car" route="E8_to_E24" depart="522.0" departLane="random" />
    <vehicles id="E26_to_-E8_169" type="standard_car" route="E26_to_-E8" depart="522.0" departLane="random" />
    <vehicle id="-E23_to_-E8_170" type="standard_car" route="-E23_to_-E8" depart="524.0" departLane="random" />
    <vehicles id="E26_to_-E8_171" type="standard_car" route="E26_to_-E8" depart="525.0" departLane="random" />
    <vehicle id="E8_to_E23_172" type="standard_car" route="E8_to_E23" depart="526.0" departLane="random" />
    <vehicles id="E8_to_E24_173" type="standard_car" route="E8_to_E24" depart="526.0" departLane="random" />
    <vehicle id="E8_to_E23_174" type="standard_car" route="E8_to_E23" depart="526.0" departLane="random" />
    <vehicle id="E26_to_E23_175" type="standard_car" route="E26_to_E23" depart="528.0" departLane="random" />
    <vehicles id="E8_to_E24_176" type="standard_car" route="E8_to_E24" depart="529.0" departLane="random" />
    <vehicle id="E26_to_E23_177" type="standard_car" route="E26_to_E23" depart="530.0" departLane="random" />
    <vehicles id="E8_to_E24_178" type="standard_car" route="E8_to_E24" depart="534.0" departLane="random" />
    <vehicles id="E8_to_E24_179" type="standard_car" route="E8_to_E24" depart="535.0" departLane="random" />
    <vehicles id="E26_to_-E8_180" type="standard_car" route="E26_to_-E8" depart="537.0" departLane="random" />
    <vehicle id="E8_to_E23_181" type="standard_car" route="E8_to_E23" depart="541.0" departLane="random" />
    <vehicles id="E26_to_-E8_182" type="standard_car" route="E26_to_-E8" depart="541.0" departLane="random" />
    <vehicles id="E8_to_E24_183" type="standard_car" route="E8_to_E24" depart="542.0" departLane="random" />
    <vehicles id="E26_to_-E8_184" type="standard_car" route="E26_to_-E8" depart="543.0" departLane="random" />
    <vehicles id="E8_to_E24_185" type="standard_car" route="E8_to_E24" depart="545.0" departLane="random" />
    <vehicles id="E8_to_E24_186" type="standard_car" route="E8_to_E24" depart="547.0" departLane="random" />
    <vehicles id="E26_to_-E8_187" type="standard_car" route="E26_to_-E8" depart="548.0" departLane="random" />
    <vehicle id="-E23_to_E24_188" type="standard_car" route="-E23_to_E24" depart="549.0" departLane="random" />
    <vehicle id="E26_to_E23_189" type="standard_car" route="E26_to_E23" depart="549.0" departLane="random" />
    <vehicles id="E26_to_-E8_190" type="standard_car" route="E26_to_-E8" depart="550.0" departLane="random" />
    <vehicles id="E26_to_-E8_191" type="standard_car" route="E26_to_-E8" depart="550.0" departLane="random" />
    <vehicles id="E8_to_E24_192" type="standard_car" route="E8_to_E24" depart="554.0" departLane="random" />
    <vehicle id="E8_to_E23_193" type="standard_car" route="E8_to_E23" depart="554.0" departLane="random" />
    <vehicle id="E26_to_E23_194" type="standard_car" route="E26_to_E23" depart="556.0" departLane="random" />
    <vehicles id="E26_to_-E8_195" type="standard_car" route="E26_to_-E8" depart="556.0" departLane="random" />
    <vehicles id="E8_to_E24_196" type="standard_car" route="E8_to_E24" depart="558.0" departLane="random" />
    <vehicle id="-E23_to_E24_197" type="standard_car" route="-E23_to_E24" depart="559.0" departLane="random" />
    <vehicles id="E8_to_E24_198" type="standard_car" route="E8_to_E24" depart="560.0" departLane="random" />
    <vehicles id="E8_to_E24_199" type="standard_car" route="E8_to_E24" depart="564.0" departLane="random" />
    <vehicles id="E26_to_-E8_200" type="standard_car" route="E26_to_-E8" depart="565.0" departLane="random" />
    <vehicles id="E8_to_E24_201" type="standard_car" route="E8_to_E24" depart="565.0" departLane="random" />
    <vehicle id="E8_to_E23_202" type="standard_car" route="E8_to_E23" depart="566.0" departLane="random" />
    <vehicles id="E26_to_-E8_203" type="standard_car" route="E26_to_-E8" depart="571.0" departLane="random" />
    <vehicle id="E26_to_E23_204" type="standard_car" route="E26_to_E23" depart="572.0" departLane="random" />
    <vehicles id="E8_to_E24_205" type="standard_car" route="E8_to_E24" depart="573.0" departLane="random" />
    <vehicle id="-E23_to_-E8_206" type="standard_car" route="-E23_to_-E8" depart="574.0" departLane="random" />
    <vehicles id="E26_to_-E8_207" type="standard_car" route="E26_to_-E8" depart="577.0" departLane="random" />
    <vehicles id="E8_to_E24_208" type="standard_car" route="E8_to_E24" depart="579.0" departLane="random" />
    <vehicles id="E26_to_-E8_209" type="standard_car" route="E26_to_-E8" depart="580.0" departLane="random" />
    <vehicle id="-E23_to_-E8_210" type="standard_car" route="-E23_to_-E8" depart="583.0" departLane="random" />
    <vehicles id="E8_to_E24_211" type="standard_car" route="E8_to_E24" depart="584.0" departLane="random" />
    <vehicle id="E26_to_E23_212" type="standard_car" route="E26_to_E23" depart="585.0" departLane="random" />
    <vehicles id="E26_to_-E8_213" type="standard_car" route="E26_to_-E8" depart="586.0" departLane="random" />
    <vehicle id="-E23_to_-E8_214" type="standard_car" route="-E23_to_-E8" depart="588.0" departLane="random" />
    <vehicle id="E8_to_E23_215" type="standard_car" route="E8_to_E23" depart="589.0" departLane="random" />
    <vehicles id="E26_to_-E8_216" type="standard_car" route="E26_to_-E8" depart="593.0" departLane="random" />
    <vehicles id="E8_to_E24_217" type="standard_car" route="E8_to_E24" depart="593.0" departLane="random" />
    <vehicles id="E8_to_E24_218" type="standard_car" route="E8_to_E24" depart="598.0" departLane="random" />
    <vehicles id="E26_to_-E8_219" type="standard_car" route="E26_to_-E8" depart="599.0" departLane="random" />
    <vehicles id="E8_to_E24_220" type="standard_car" route="E8_to_E24" depart="599.0" departLane="random" />
    <vehicles id="E26_to_-E8_221" type="standard_car" route="E26_to_-E8" depart="600.0" departLane="random" />
    <vehicles id="E26_to_-E8_222" type="standard_car" route="E26_to_-E8" depart="600.0" departLane="random" />
    <vehicles id="E8_to_E24_223" type="standard_car" route="E8_to_E24" depart="600.0" departLane="random" />
    <vehicles id="E8_to_E24_224" type="standard_car" route="E8_to_E24" depart="601.0" departLane="random" />
    <vehicle id="E8_to_E23_225" type="standard_car" route="E8_to_E23" depart="606.0" departLane="random" />
    <vehicle id="-E23_to_-E8_226" type="standard_car" route="-E23_to_-E8" depart="607.0" departLane="random" />
    <vehicles id="E26_to_-E8_227" type="standard_car" route="E26_to_-E8" depart="609.0" departLane="random" />
    <vehicles id="E26_to_-E8_228" type="standard_car" route="E26_to_-E8" depart="609.0" departLane="random" />
    <vehicles id="E26_to_-E8_229" type="standard_car" route="E26_to_-E8" depart="610.0" departLane="random" />
    <vehicle id="E26_to_E23_230" type="standard_car" route="E26_to_E23" depart="611.0" departLane="random" />
    <vehicle id="-E23_to_E24_231" type="standard_car" route="-E23_to_E24" depart="612.0" departLane="random" />
    <vehicles id="E8_to_E24_232" type="standard_car" route="E8_to_E24" depart="612.0" departLane="random" />
    <vehicles id="E26_to_-E8_233" type="standard_car" route="E26_to_-E8" depart="616.0" departLane="random" />
    <vehicle id="-E23_to_E24_234" type="standard_car" route="-E23_to_E24" depart="618.0" departLane="random" />
    <vehicles id="E8_to_E24_235" type="standard_car" route="E8_to_E24" depart="619.0" departLane="random" />
    <vehicles id="E8_to_E24_236" type="standard_car" route="E8_to_E24" depart="620.0" departLane="random" />
    <vehicles id="E26_to_-E8_237" type="standard_car" route="E26_to_-E8" depart="624.0" departLane="random" />
    <vehicles id="E8_to_E24_238" type="standard_car" route="E8_to_E24" depart="624.0" departLane="random" />
    <vehicle id="-E23_to_E24_239" type="standard_car" route="-E23_to_E24" depart="628.0" departLane="random" />
    <vehicle id="-E23_to_-E8_240" type="standard_car" route="-E23_to_-E8" depart="628.0" departLane="random" />
    <vehicles id="E8_to_E24_241" type="standard_car" route="E8_to_E24" depart="629.0" departLane="random" />
    <vehicles id="E8_to_E24_242" type="standard_car" route="E8_to_E24" depart="631.0" departLane="random" />
    <vehicles id="E26_to_-E8_243" type="standard_car" route="E26_to_-E8" depart="637.0" departLane="random" />
    <vehicles id="E26_to_-E8_244" type="standard_car" route="E26_to_-E8" depart="638.0" departLane="random" />
    <vehicle id="E8_to_E23_245" type="standard_car" route="E8_to_E23" depart="640.0" departLane="random" />
    <vehicle id="E26_to_E23_246" type="standard_car" route="E26_to_E23" depart="640.0" departLane="random" />
    <vehicle id="-E23_to_-E8_247" type="standard_car" route="-E23_to_-E8" depart="641.0" departLane="random" />
    <vehicles id="E8_to_E24_248" type="standard_car" route="E8_to_E24" depart="643.0" departLane="random" />
    <vehicles id="E26_to_-E8_249" type="standard_car" route="E26_to_-E8" depart="646.0" departLane="random" />
    <vehicle id="-E23_to_E24_250" type="standard_car" route="-E23_to_E24" depart="647.0" departLane="random" />
    <vehicles id="E26_to_-E8_251" type="standard_car" route="E26_to_-E8" depart="647.0" departLane="random" />
    <vehicle id="E26_to_E23_252" type="standard_car" route="E26_to_E23" depart="647.0" departLane="random" />
    <vehicles id="E26_to_-E8_253" type="standard_car" route="E26_to_-E8" depart="649.0" departLane="random" />
    <vehicles id="E8_to_E24_254" type="standard_car" route="E8_to_E24" depart="649.0" departLane="random" />
    <vehicles id="E8_to_E24_255" type="standard_car" route="E8_to_E24" depart="652.0" departLane="random" />
    <vehicle id="E8_to_E23_256" type="standard_car" route="E8_to_E23" depart="654.0" departLane="random" />
    <vehicles id="E26_to_-E8_257" type="standard_car" route="E26_to_-E8" depart="654.0" departLane="random" />
    <vehicles id="E8_to_E24_258" type="standard_car" route="E8_to_E24" depart="658.0" departLane="random" />
    <vehicle id="E26_to_E23_259" type="standard_car" route="E26_to_E23" depart="659.0" departLane="random" />
    <vehicle id="-E23_to_-E8_260" type="standard_car" route="-E23_to_-E8" depart="661.0" departLane="random" />
    <vehicles id="E26_to_-E8_261" type="standard_car" route="E26_to_-E8" depart="661.0" departLane="random" />
    <vehicles id="E26_to_-E8_262" type="standard_car" route="E26_to_-E8" depart="662.0" departLane="random" />
    <vehicles id="E26_to_-E8_263" type="standard_car" route="E26_to_-E8" depart="663.0" departLane="random" />
    <vehicle id="E8_to_E23_264" type="standard_car" route="E8_to_E23" depart="665.0" departLane="random" />
    <vehicles id="E26_to_-E8_265" type="standard_car" route="E26_to_-E8" depart="666.0" departLane="random" />
    <vehicle id="E26_to_E23_266" type="standard_car" route="E26_to_E23" depart="667.0" departLane="random" />
    <vehicles id="E26_to_-E8_267" type="standard_car" route="E26_to_-E8" depart="668.0" departLane="random" />
    <vehicle id="E26_to_E23_268" type="standard_car" route="E26_to_E23" depart="669.0" departLane="random" />