<routes>
    <vType accel="0.8" id="standard_car" decel="4.5" length="5.0" minGap="2.5" maxSpeed="16.67" sigma="0.5" />
    
    <route id="-E23_to_E24" edges="-E23 E24" />
    <route id="-E23_to_-E8" edges="-E23 -E8" />
    <route id="E26_to_-E8" edges="E26 -E8" />
    <route id="E26_to_E23" edges="E26 E23" />
    <route id="E8_to_E23" edges="E8 E23" />
    <route id="E8_to_E24" edges="E8 E24" />
    <vehicle id="-E23_to_-E8_0" type="standard_car" route="-E23_to_-E8" depart="8.0" departLane="random" />
    <vehicle id="E8_to_E24_1" type="standard_car" route="E8_to_E24" depart="8.0" departLane="random" />
    <vehicle id="-E23_to_-E8_2" type="standard_car" route="-E23_to_-E8" depart="66.0" departLane="random" />
    <vehicle id="E26_to_-E8_3" type="standard_car" route="E26_to_-E8" depart="100.0" departLane="random" />
    <vehicle id="E26_to_-E8_4" type="standard_car" route="E26_to_-E8" depart="119.0" departLane="random" />
    <vehicle id="E8_to_E24_5" type="standard_car" route="E8_to_E24" depart="122.0" departLane="random" />
    <vehicle id="-E23_to_-E8_6" type="standard_car" route="-E23_to_-E8" depart="122.0" departLane="random" />
    <vehicle id="E26_to_E23_7" type="standard_car" route="E26_to_E23" depart="146.0" departLane="random" />
    <vehicle id="E8_to_E24_8" type="standard_car" route="E8_to_E24" depart="149.0" departLane="random" />
    <vehicle id="E26_to_-E8_9" type="standard_car" route="E26_to_-E8" depart="149.0" departLane="random" />
    <vehicle id="E8_to_E24_10" type="standard_car" route="E8_to_E24" depart="169.0" departLane="random" />
    <vehicle id="-E23_to_-E8_11" type="standard_car" route="-E23_to_-E8" depart="213.0" departLane="random" />
    <vehicle id="E8_to_E24_12" type="standard_car" route="E8_to_E24" depart="214.0" departLane="random" />
    <vehicle id="E26_to_-E8_13" type="standard_car" route="E26_to_-E8" depart="219.0" departLane="random" />
    <vehicle id="E26_to_-E8_14" type="standard_car" route="E26_to_-E8" depart="222.0" departLane="random" />
    <vehicle id="-E23_to_-E8_15" type="standard_car" route="-E23_to_-E8" depart="225.0" departLane="random" />
    <vehicle id="E8_to_E24_16" type="standard_car" route="E8_to_E24" depart="227.0" departLane="random" />
    <vehicle id="E26_to_-E8_17" type="standard_car" route="E26_to_-E8" depart="279.0" departLane="random" />
    <vehicle id="E8_to_E23_18" type="standard_car" route="E8_to_E23" depart="305.0" departLane="random" />
    <vehicle id="E26_to_-E8_19" type="standard_car" route="E26_to_-E8" depart="305.0" departLane="random" />
    <vehicle id="-E23_to_E24_20" type="standard_car" route="-E23_to_E24" depart="322.0" departLane="random" />
    <vehicle id="E8_to_E24_21" type="standard_car" route="E8_to_E24" depart="326.0" departLane="random" />
    <vehicle id="-E23_to_E24_22" type="standard_car" route="-E23_to_E24" depart="326.0" departLane="random" />
    <vehicle id="-E23_to_-E8_23" type="standard_car" route="-E23_to_-E8" depart="342.0" departLane="random" />
    <vehicle id="E26_to_-E8_24" type="standard_car" route="E26_to_-E8" depart="347.0" departLane="random" />
    <vehicle id="E26_to_-E8_25" type="standard_car" route="E26_to_-E8" depart="353.0" departLane="random" />
    <vehicle id="E26_to_E23_26" type="standard_car" route="E26_to_E23" depart="356.0" departLane="random" />
    <vehicle id="E8_to_E24_27" type="standard_car" route="E8_to_E24" depart="361.0" departLane="random" />
    <vehicle id="E8_to_E24_28" type="standard_car" route="E8_to_E24" depart="363.0" departLane="random" />
    <vehicle id="E26_to_-E8_29" type="standard_car" route="E26_to_-E8" depart="364.0" departLane="random" />
    <vehicle id="E26_to_-E8_30" type="standard_car" route="E26_to_-E8" depart="372.0" departLane="random" />
    <vehicle id="E26_to_-E8_31" type="standard_car" route="E26_to_-E8" depart="372.0" departLane="random" />
    <vehicle id="E8_to_E24_32" type="standard_car" route="E8_to_E24" depart="373.0" departLane="random" />
    <vehicle id="E26_to_-E8_33" type="standard_car" route="E26_to_-E8" depart="379.0" departLane="random" />
    <vehicle id="E26_to_-E8_34" type="standard_car" route="E26_to_-E8" depart="380.0" departLane="random" />
    <vehicle id="E8_to_E23_35" type="standard_car" route="E8_to_E23" depart="390.0" departLane="random" />
    <vehicle id="E8_to_E24_36" type="standard_car" route="E8_to_E24" depart="394.0" departLane="random" />
    <vehicle id="E8_to_E24_37" type="standard_car" route="E8_to_E24" depart="400.0" departLane="random" />
    <vehicle id="E8_to_E24_38" type="standard_car" route="E8_to_E24" depart="403.0" departLane="random" />
    <vehicle id="E8_to_E24_39" type="standard_car" route="E8_to_E24" depart="404.0" departLane="random" />
    <vehicle id="E26_to_-E8_40" type="standard_car" route="E26_to_-E8" depart="409.0" departLane="random" />
    <vehicle id="-E23_to_E24_41" type="standard_car" route="-E23_to_E24" depart="412.0" departLane="random" />
    <vehicle id="E26_to_-E8_42" type="standard_car" route="E26_to_-E8" depart="414.0" departLane="random" />
    <vehicle id="E8_to_E24_43" type="standard_car" route="E8_to_E24" depart="427.0" departLane="random" />
    <vehicle id="E8_to_E24_44" type="standard_car" route="E8_to_E24" depart="442.0" departLane="random" />
    <vehicle id="E26_to_-E8_45" type="standard_car" route="E26_to_-E8" depart="443.0" departLane="random" />
    <vehicle id="E26_to_E23_46" type="standard_car" route="E26_to_E23" depart="459.0" departLane="random" />
    <vehicle id="E8_to_E23_47" type="standard_car" route="E8_to_E23" depart="461.0" departLane="random" />
    <vehicle id="-E23_to_-E8_48" type="standard_car" route="-E23_to_-E8" depart="463.0" departLane="random" />
    <vehicle id="E26_to_-E8_49" type="standard_car" route="E26_to_-E8" depart="469.0" departLane="random" />
    <vehicle id="E8_to_E24_50" type="standard_car" route="E8_to_E24" depart="470.0" departLane="random" />
    <vehicle id="E26_to_-E8_51" type="standard_car" route="E26_to_-E8" depart="472.0" departLane="random" />
    <vehicle id="E26_to_-E8_52" type="standard_car" route="E26_to_-E8" depart="480.0" departLane="random" />
    <vehicle id="-E23_to_E24_53" type="standard_car" route="-E23_to_E24" depart="502.0" departLane="random" />
    <vehicle id="E8_to_E24_54" type="standard_car" route="E8_to_E24" depart="507.0" departLane="random" />
    <vehicle id="E8_to_E23_55" type="standard_car" route="E8_to_E23" depart="508.0" departLane="random" />
    <vehicle id="E8_to_E24_56" type="standard_car" route="E8_to_E24" depart="509.0" departLane="random" />
    <vehicle id="-E23_to_E24_57" type="standard_car" route="-E23_to_E24" depart="509.0" departLane="random" />
    <vehicle id="E26_to_-E8_58" type="standard_car" route="E26_to_-E8" depart="510.0" departLane="random" />
    <vehicle id="E8_to_E24_59" type="standard_car" route="E8_to_E24" depart="512.0" departLane="random" />
    <vehicle id="E26_to_E23_60" type="standard_car" route="E26_to_E23" depart="515.0" departLane="random" />
    <vehicle id="-E23_to_E24_61" type="standard_car" route="-E23_to_E24" depart="517.0" departLane="random" />
    <vehicle id="E26_to_-E8_62" type="standard_car" route="E26_to_-E8" depart="518.0" departLane="random" />
    <vehicle id="E8_to_E24_63" type="standard_car" route="E8_to_E24" depart="531.0" departLane="random" />
    <vehicle id="-E23_to_-E8_64" type="standard_car" route="-E23_to_-E8" depart="533.0" departLane="random" />
    <vehicle id="E8_to_E23_65" type="standard_car" route="E8_to_E23" depart="541.0" departLane="random" />
    <vehicle id="E26_to_-E8_66" type="standard_car" route="E26_to_-E8" depart="548.0" departLane="random" />
    <vehicle id="-E23_to_-E8_67" type="standard_car" route="-E23_to_-E8" depart="551.0" departLane="random" />
    <vehicle id="E26_to_E23_68" type="standard_car" route="E26_to_E23" depart="561.0" departLane="random" />
    <vehicle id="E26_to_-E8_69" type="standard_car" route="E26_to_-E8" depart="564.0" departLane="random" />
    <vehicle id="-E23_to_-E8_70" type="standard_car" route="-E23_to_-E8" depart="569.0" departLane="random" />
    <vehicle id="E26_to_E23_71" type="standard_car" route="E26_to_E23" depart="571.0" departLane="random" />
    <vehicle id="E26_to_-E8_72" type="standard_car" route="E26_to_-E8" depart="575.0" departLane="random" />
    <vehicle id="E8_to_E24_73" type="standard_car" route="E8_to_E24" depart="575.0" departLane="random" />
    <vehicle id="-E23_to_-E8_74" type="standard_car" route="-E23_to_-E8" depart="581.0" departLane="random" />
    <vehicle id="E26_to_-E8_75" type="standard_car" route="E26_to_-E8" depart="582.0" departLane="random" />
    <vehicle id="-E23_to_E24_76" type="standard_car" route="-E23_to_E24" depart="585.0" departLane="random" />
    <vehicle id="E26_to_-E8_77" type="standard_car" route="E26_to_-E8" depart="588.0" departLane="random" />
    <vehicle id="E8_to_E24_78" type="standard_car" route="E8_to_E24" depart="588.0" departLane="random" />
    <vehicle id="-E23_to_E24_79" type="standard_car" route="-E23_to_E24" depart="589.0" departLane="random" />
    <vehicle id="E26_to_-E8_80" type="standard_car" route="E26_to_-E8" depart="595.0" departLane="random" />
    <vehicle id="E8_to_E24_81" type="standard_car" route="E8_to_E24" depart="596.0" departLane="random" />
    <vehicle id="E8_to_E24_82" type="standard_car" route="E8_to_E24" depart="597.0" departLane="random" />
    <vehicle id="E26_to_-E8_83" type="standard_car" route="E26_to_-E8" depart="601.0" departLane="random" />
    <vehicle id="E8_to_E24_84" type="standard_car" route="E8_to_E24" depart="602.0" departLane="random" />
    <vehicle id="E26_to_-E8_85" type="standard_car" route="E26_to_-E8" depart="602.0" departLane="random" />
    <vehicle id="E26_to_-E8_86" type="standard_car" route="E26_to_-E8" depart="602.0" departLane="random" />
    <vehicle id="E8_to_E24_87" type="standard_car" route="E8_to_E24" depart="604.0" departLane="random" />
    <vehicle id="E26_to_-E8_88" type="standard_car" route="E26_to_-E8" depart="606.0" departLane="random" />
    <vehicle id="E26_to_-E8_89" type="standard_car" route="E26_to_-E8" depart="611.0" departLane="random" />
    <vehicle id="E26_to_-E8_90" type="standard_car" route="E26_to_-E8" depart="614.0" departLane="random" />
    <vehicle id="E8_to_E24_91" type="standard_car" route="E8_to_E24" depart="615.0" departLane="random" />
    <vehicle id="E26_to_-E8_92" type="standard_car" route="E26_to_-E8" depart="619.0" departLane="random" />
    <vehicle id="E26_to_-E8_93" type="standard_car" route="E26_to_-E8" depart="622.0" departLane="random" />
    <vehicle id="E26_to_-E8_94" type="standard_car" route="E26_to_-E8" depart="622.0" departLane="random" />
    <vehicle id="E8_to_E24_95" type="standard_car" route="E8_to_E24" depart="626.0" departLane="random" />
    <vehicle id="E8_to_E24_96" type="standard_car" route="E8_to_E24" depart="627.0" departLane="random" />
    <vehicle id="E8_to_E23_97" type="standard_car" route="E8_to_E23" depart="631.0" departLane="random" />
    <vehicle id="-E23_to_E24_98" type="standard_car" route="-E23_to_E24" depart="640.0" departLane="random" />
    <vehicle id="E8_to_E24_99" type="standard_car" route="E8_to_E24" depart="642.0" departLane="random" />
    <vehicle id="E8_to_E24_100" type="standard_car" route="E8_to_E24" depart="643.0" departLane="random" />
    <vehicle id="E26_to_E23_101" type="standard_car" route="E26_to_E23" depart="647.0" departLane="random" />
    <vehicle id="E26_to_E23_102" type="standard_car" route="E26_to_E23" depart="647.0" departLane="random" />
    <vehicle id="E26_to_-E8_103" type="standard_car" route="E26_to_-E8" depart="652.0" departLane="random" />
    <vehicle id="E26_to_E23_104" type="standard_car" route="E26_to_E23" depart="656.0" departLane="random" />
    <vehicle id="E8_to_E24_105" type="standard_car" route="E8_to_E24" depart="659.0" departLane="random" />
    <vehicle id="E8_to_E24_106" type="standard_car" route="E8_to_E24" depart="663.0" departLane="random" />
    <vehicle id="E26_to_-E8_107" type="standard_car" route="E26_to_-E8" depart="664.0" departLane="random" />
    <vehicle id="-E23_to_-E8_108" type="standard_car" route="-E23_to_-E8" depart="666.0" departLane="random" />
    <vehicle id="-E23_to_E24_109" type="standard_car" route="-E23_to_E24" depart="678.0" departLane="random" />
    <vehicle id="E8_to_E23_110" type="standard_car" route="E8_to_E23" depart="679.0" departLane="random" />
    <vehicle id="E26_to_E23_111" type="standard_car" route="E26_to_E23" depart="680.0" departLane="random" />
    <vehicle id="E26_to_-E8_112" type="standard_car" route="E26_to_-E8" depart="681.0" departLane="random" />
    <vehicle id="E26_to_-E8_113" type="standard_car" route="E26_to_-E8" depart="684.0" departLane="random" />
    <vehicle id="E8_to_E24_114" type="standard_car" route="E8_to_E24" depart="686.0" departLane="random" />
    <vehicle id="E8_to_E23_115" type="standard_car" route="E8_to_E23" depart="686.0" departLane="random" />
    <vehicle id="E26_to_-E8_116" type="standard_car" route="E26_to_-E8" depart="687.0" departLane="random" />
    <vehicle id="E8_to_E24_117" type="standard_car" route="E8_to_E24" depart="687.0" departLane="random" />
    <vehicle id="E26_to_-E8_118" type="standard_car" route="E26_to_-E8" depart="695.0" departLane="random" />
    <vehicle id="E8_to_E24_119" type="standard_car" route="E8_to_E24" depart="707.0" departLane="random" />
    <vehicle id="E26_to_-E8_120" type="standard_car" route="E26_to_-E8" depart="710.0" departLane="random" />
    <vehicle id="E8_to_E24_121" type="standard_car" route="E8_to_E24" depart="710.0" departLane="random" />
    <vehicle id="E26_to_-E8_122" type="standard_car" route="E26_to_-E8" depart="713.0" departLane="random" />
    <vehicle id="E8_to_E23_123" type="standard_car" route="E8_to_E23" depart="715.0" departLane="random" />
    <vehicle id="E26_to_-E8_124" type="standard_car" route="E26_to_-E8" depart="715.0" departLane="random" />
    <vehicle id="E26_to_-E8_125" type="standard_car" route="E26_to_-E8" depart="716.0" departLane="random" />
    <vehicle id="E26_to_E23_126" type="standard_car" route="E26_to_E23" depart="717.0" departLane="random" />
    <vehicle id="E8_to_E24_127" type="standard_car" route="E8_to_E24" depart="717.0" departLane="random" />
    <vehicle id="-E23_to_E24_128" type="standard_car" route="-E23_to_E24" depart="718.0" departLane="random" />
    <vehicle id="E26_to_-E8_129" type="standard_car" route="E26_to_-E8" depart="725.0" departLane="random" />
    <vehicle id="E26_to_-E8_130" type="standard_car" route="E26_to_-E8" depart="729.0" departLane="random" />
    <vehicle id="E26_to_-E8_131" type="standard_car" route="E26_to_-E8" depart="731.0" departLane="random" />
    <vehicle id="E8_to_E24_132" type="standard_car" route="E8_to_E24" depart="731.0" departLane="random" />
    <vehicle id="E8_to_E24_133" type="standard_car" route="E8_to_E24" depart="734.0" departLane="random" />
    <vehicle id="-E23_to_-E8_134" type="standard_car" route="-E23_to_-E8" depart="735.0" departLane="random" />
    <vehicle id="-E23_to_-E8_135" type="standard_car" route="-E23_to_-E8" depart="736.0" departLane="random" />
    <vehicle id="E26_to_-E8_136" type="standard_car" route="E26_to_-E8" depart="737.0" departLane="random" />
    <vehicle id="-E23_to_E24_137" type="standard_car" route="-E23_to_E24" depart="738.0" departLane="random" />
    <vehicle id="E26_to_-E8_138" type="standard_car" route="E26_to_-E8" depart="746.0" departLane="random" />
    <vehicle id="E26_to_-E8_139" type="standard_car" route="E26_to_-E8" depart="747.0" departLane="random" />
    <vehicle id="E26_to_-E8_140" type="standard_car" route="E26_to_-E8" depart="748.0" departLane="random" />
    <vehicle id="E26_to_-E8_141" type="standard_car" route="E26_to_-E8" depart="750.0" departLane="random" />
    <vehicle id="E26_to_-E8_142" type="standard_car" route="E26_to_-E8" depart="752.0" departLane="random" />
    <vehicle id="E26_to_-E8_143" type="standard_car" route="E26_to_-E8" depart="754.0" departLane="random" />
    <vehicle id="E26_to_E23_144" type="standard_car" route="E26_to_E23" depart="755.0" departLane="random" />
    <vehicle id="E8_to_E23_145" type="standard_car" route="E8_to_E23" depart="757.0" departLane="random" />
    <vehicle id="E8_to_E24_146" type="standard_car" route="E8_to_E24" depart="757.0" departLane="random" />
    <vehicle id="E8_to_E24_147" type="standard_car" route="E8_to_E24" depart="757.0" departLane="random" />
    <vehicle id="E8_to_E23_148" type="standard_car" route="E8_to_E23" depart="758.0" departLane="random" />
    <vehicle id="E8_to_E23_149" type="standard_car" route="E8_to_E23" depart="760.0" departLane="random" />
    <vehicle id="E26_to_-E8_150" type="standard_car" route="E26_to_-E8" depart="763.0" departLane="random" />
    <vehicle id="E8_to_E23_151" type="standard_car" route="E8_to_E23" depart="765.0" departLane="random" />
    <vehicle id="-E23_to_E24_152" type="standard_car" route="-E23_to_E24" depart="767.0" departLane="random" />
    <vehicle id="E26_to_E23_153" type="standard_car" route="E26_to_E23" depart="767.0" departLane="random" />
    <vehicle id="-E23_to_E24_154" type="standard_car" route="-E23_to_E24" depart="771.0" departLane="random" />
    <vehicle id="E8_to_E23_155" type="standard_car" route="E8_to_E23" depart="772.0" departLane="random" />
    <vehicle id="E26_to_-E8_156" type="standard_car" route="E26_to_-E8" depart="779.0" departLane="random" />
    <vehicle id="E26_to_E23_157" type="standard_car" route="E26_to_E23" depart="787.0" departLane="random" />
    <vehicle id="-E23_to_-E8_158" type="standard_car" route="-E23_to_-E8" depart="787.0" departLane="random" />
    <vehicle id="-E23_to_-E8_159" type="standard_car" route="-E23_to_-E8" depart="791.0" departLane="random" />
    <vehicle id="E26_to_E23_160" type="standard_car" route="E26_to_E23" depart="791.0" departLane="random" />
    <vehicle id="E26_to_-E8_161" type="standard_car" route="E26_to_-E8" depart="791.0" departLane="random" />
    <vehicle id="E8_to_E24_162" type="standard_car" route="E8_to_E24" depart="791.0" departLane="random" />
    <vehicle id="-E23_to_-E8_163" type="standard_car" route="-E23_to_-E8" depart="803.0" departLane="random" />
    <vehicle id="E26_to_-E8_164" type="standard_car" route="E26_to_-E8" depart="815.0" departLane="random" />
    <vehicle id="-E23_to_-E8_165" type="standard_car" route="-E23_to_-E8" depart="819.0" departLane="random" />
    <vehicle id="E26_to_-E8_166" type="standard_car" route="E26_to_-E8" depart="820.0" departLane="random" />
    <vehicle id="E26_to_-E8_167" type="standard_car" route="E26_to_-E8" depart="826.0" departLane="random" />
    <vehicle id="E8_to_E24_168" type="standard_car" route="E8_to_E24" depart="826.0" departLane="random" />
    <vehicle id="E8_to_E24_169" type="standard_car" route="E8_to_E24" depart="828.0" departLane="random" />
    <vehicle id="E26_to_-E8_170" type="standard_car" route="E26_to_-E8" depart="829.0" departLane="random" />
    <vehicle id="E8_to_E24_171" type="standard_car" route="E8_to_E24" depart="832.0" departLane="random" />
    <vehicle id="E26_to_-E8_172" type="standard_car" route="E26_to_-E8" depart="834.0" departLane="random" />
    <vehicle id="E26_to_-E8_173" type="standard_car" route="E26_to_-E8" depart="834.0" departLane="random" />
    <vehicle id="-E23_to_-E8_174" type="standard_car" route="-E23_to_-E8" depart="839.0" departLane="random" />
    <vehicle id="E26_to_-E8_175" type="standard_car" route="E26_to_-E8" depart="846.0" departLane="random" />
    <vehicle id="E8_to_E24_176" type="standard_car" route="E8_to_E24" depart="848.0" departLane="random" />
    <vehicle id="-E23_to_E24_177" type="standard_car" route="-E23_to_E24" depart="849.0" departLane="random" />
    <vehicle id="E26_to_-E8_178" type="standard_car" route="E26_to_-E8" depart="852.0" departLane="random" />
    <vehicle id="-E23_to_-E8_179" type="standard_car" route="-E23_to_-E8" depart="853.0" departLane="random" />
    <vehicle id="E8_to_E24_180" type="standard_car" route="E8_to_E24" depart="859.0" departLane="random" />
    <vehicle id="E26_to_-E8_181" type="standard_car" route="E26_to_-E8" depart="861.0" departLane="random" />
    <vehicle id="E26_to_E23_182" type="standard_car" route="E26_to_E23" depart="862.0" departLane="random" />
    <vehicle id="E26_to_-E8_183" type="standard_car" route="E26_to_-E8" depart="862.0" departLane="random" />
    <vehicle id="E26_to_-E8_184" type="standard_car" route="E26_to_-E8" depart="863.0" departLane="random" />
    <vehicle id="E8_to_E24_185" type="standard_car" route="E8_to_E24" depart="863.0" departLane="random" />
    <vehicle id="-E23_to_-E8_186" type="standard_car" route="-E23_to_-E8" depart="865.0" departLane="random" />
    <vehicle id="E8_to_E24_187" type="standard_car" route="E8_to_E24" depart="869.0" departLane="random" />
    <vehicle id="E26_to_-E8_188" type="standard_car" route="E26_to_-E8" depart="878.0" departLane="random" />
    <vehicle id="E26_to_-E8_189" type="standard_car" route="E26_to_-E8" depart="878.0" departLane="random" />
    <vehicle id="-E23_to_-E8_190" type="standard_car" route="-E23_to_-E8" depart="879.0" departLane="random" />
    <vehicle id="E8_to_E24_191" type="standard_car" route="E8_to_E24" depart="879.0" departLane="random" />
    <vehicle id="E26_to_-E8_192" type="standard_car" route="E26_to_-E8" depart="889.0" departLane="random" />
    <vehicle id="E26_to_-E8_193" type="standard_car" route="E26_to_-E8" depart="889.0" departLane="random" />
    <vehicle id="-E23_to_-E8_194" type="standard_car" route="-E23_to_-E8" depart="891.0" departLane="random" />
    <vehicle id="E26_to_E23_195" type="standard_car" route="E26_to_E23" depart="893.0" departLane="random" />
    <vehicle id="E26_to_-E8_196" type="standard_car" route="E26_to_-E8" depart="894.0" departLane="random" />
    <vehicle id="E26_to_-E8_197" type="standard_car" route="E26_to_-E8" depart="901.0" departLane="random" />
    <vehicle id="E8_to_E23_198" type="standard_car" route="E8_to_E23" depart="902.0" departLane="random" />
    <vehicle id="E26_to_-E8_199" type="standard_car" route="E26_to_-E8" depart="902.0" departLane="random" />
    <vehicle id="E8_to_E24_200" type="standard_car" route="E8_to_E24" depart="902.0" departLane="random" />
    <vehicle id="E26_to_-E8_201" type="standard_car" route="E26_to_-E8" depart="904.0" departLane="random" />
    <vehicle id="E8_to_E24_202" type="standard_car" route="E8_to_E24" depart="920.0" departLane="random" />
    <vehicle id="-E23_to_-E8_203" type="standard_car" route="-E23_to_-E8" depart="922.0" departLane="random" />
    <vehicle id="E8_to_E24_204" type="standard_car" route="E8_to_E24" depart="922.0" departLane="random" />
    <vehicle id="E8_to_E24_205" type="standard_car" route="E8_to_E24" depart="924.0" departLane="random" />
    <vehicle id="-E23_to_-E8_206" type="standard_car" route="-E23_to_-E8" depart="924.0" departLane="random" />
    <vehicle id="E8_to_E24_207" type="standard_car" route="E8_to_E24" depart="927.0" departLane="random" />
    <vehicle id="E8_to_E23_208" type="standard_car" route="E8_to_E23" depart="931.0" departLane="random" />
    <vehicle id="E8_to_E24_209" type="standard_car" route="E8_to_E24" depart="931.0" departLane="random" />
    <vehicle id="E8_to_E23_210" type="standard_car" route="E8_to_E23" depart="932.0" departLane="random" />
    <vehicle id="E8_to_E24_211" type="standard_car" route="E8_to_E24" depart="932.0" departLane="random" />
    <vehicle id="E8_to_E24_212" type="standard_car" route="E8_to_E24" depart="933.0" departLane="random" />
    <vehicle id="E26_to_-E8_213" type="standard_car" route="E26_to_-E8" depart="935.0" departLane="random" />
    <vehicle id="E8_to_E24_214" type="standard_car" route="E8_to_E24" depart="936.0" departLane="random" />
    <vehicle id="E26_to_E23_215" type="standard_car" route="E26_to_E23" depart="936.0" departLane="random" />
    <vehicle id="E26_to_E23_216" type="standard_car" route="E26_to_E23" depart="937.0" departLane="random" />
    <vehicle id="-E23_to_E24_217" type="standard_car" route="-E23_to_E24" depart="941.0" departLane="random" />
    <vehicle id="E8_to_E24_218" type="standard_car" route="E8_to_E24" depart="942.0" departLane="random" />
    <vehicle id="E26_to_-E8_219" type="standard_car" route="E26_to_-E8" depart="948.0" departLane="random" />
    <vehicle id="E26_to_-E8_220" type="standard_car" route="E26_to_-E8" depart="951.0" departLane="random" />
    <vehicle id="E8_to_E24_221" type="standard_car" route="E8_to_E24" depart="954.0" departLane="random" />
    <vehicle id="E26_to_-E8_222" type="standard_car" route="E26_to_-E8" depart="957.0" departLane="random" />
    <vehicle id="E26_to_-E8_223" type="standard_car" route="E26_to_-E8" depart="962.0" departLane="random" />
    <vehicle id="-E23_to_E24_224" type="standard_car" route="-E23_to_E24" depart="963.0" departLane="random" />
    <vehicle id="E26_to_-E8_225" type="standard_car" route="E26_to_-E8" depart="964.0" departLane="random" />
    <vehicle id="E26_to_-E8_226" type="standard_car" route="E26_to_-E8" depart="967.0" departLane="random" />
    <vehicle id="E8_to_E23_227" type="standard_car" route="E8_to_E23" depart="970.0" departLane="random" />
    <vehicle id="E26_to_-E8_228" type="standard_car" route="E26_to_-E8" depart="971.0" departLane="random" />
    <vehicle id="E8_to_E23_229" type="standard_car" route="E8_to_E23" depart="971.0" departLane="random" />
    <vehicle id="E26_to_-E8_230" type="standard_car" route="E26_to_-E8" depart="971.0" departLane="random" />
    <vehicle id="E8_to_E24_231" type="standard_car" route="E8_to_E24" depart="971.0" departLane="random" />
    <vehicle id="E8_to_E24_232" type="standard_car" route="E8_to_E24" depart="975.0" departLane="random" />
    <vehicle id="E26_to_-E8_233" type="standard_car" route="E26_to_-E8" depart="978.0" departLane="random" />
    <vehicle id="E8_to_E24_234" type="standard_car" route="E8_to_E24" depart="979.0" departLane="random" />
    <vehicle id="E8_to_E24_235" type="standard_car" route="E8_to_E24" depart="983.0" departLane="random" />
    <vehicle id="E8_to_E24_236" type="standard_car" route="E8_to_E24" depart="985.0" departLane="random" />
    <vehicle id="E8_to_E24_237" type="standard_car" route="E8_to_E24" depart="987.0" departLane="random" />
    <vehicle id="-E23_to_E24_238" type="standard_car" route="-E23_to_E24" depart="992.0" departLane="random" />
    <vehicle id="E26_to_-E8_239" type="standard_car" route="E26_to_-E8" depart="992.0" departLane="random" />
    <vehicle id="E26_to_E23_240" type="standard_car" route="E26_to_E23" depart="993.0" departLane="random" />
    <vehicle id="E26_to_E23_241" type="standard_car" route="E26_to_E23" depart="996.0" departLane="random" />
    <vehicle id="E8_to_E24_242" type="standard_car" route="E8_to_E24" depart="997.0" departLane="random" />
    <vehicle id="-E23_to_E24_243" type="standard_car" route="-E23_to_E24" depart="998.0" departLane="random" />
    <vehicle id="E8_to_E24_244" type="standard_car" route="E8_to_E24" depart="998.0" departLane="random" />
    <vehicle id="E8_to_E23_245" type="standard_car" route="E8_to_E23" depart="1005.0" departLane="random" />
    <vehicle id="E8_to_E23_246" type="standard_car" route="E8_to_E23" depart="1008.0" departLane="random" />
    <vehicle id="-E23_to_E24_247" type="standard_car" route="-E23_to_E24" depart="1010.0" departLane="random" />
    <vehicle id="E8_to_E24_248" type="standard_car" route="E8_to_E24" depart="1015.0" departLane="random" />
    <vehicle id="E8_to_E24_249" type="standard_car" route="E8_to_E24" depart="1016.0" departLane="random" />
    <vehicle id="E8_to_E23_250" type="standard_car" route="E8_to_E23" depart="1016.0" departLane="random" />
    <vehicle id="-E23_to_-E8_251" type="standard_car" route="-E23_to_-E8" depart="1017.0" departLane="random" />
    <vehicle id="E8_to_E24_252" type="standard_car" route="E8_to_E24" depart="1017.0" departLane="random" />
    <vehicle id="E26_to_-E8_253" type="standard_car" route="E26_to_-E8" depart="1017.0" departLane="random" />
    <vehicle id="E26_to_-E8_254" type="standard_car" route="E26_to_-E8" depart="1025.0" departLane="random" />
    <vehicle id="E8_to_E24_255" type="standard_car" route="E8_to_E24" depart="1025.0" departLane="random" />
    <vehicle id="E26_to_-E8_256" type="standard_car" route="E26_to_-E8" depart="1026.0" departLane="random" />
    <vehicle id="-E23_to_-E8_257" type="standard_car" route="-E23_to_-E8" depart="1027.0" departLane="random" />
    <vehicle id="E26_to_-E8_258" type="standard_car" route="E26_to_-E8" depart="1028.0" departLane="random" />
    <vehicle id="E26_to_-E8_259" type="standard_car" route="E26_to_-E8" depart="1034.0" departLane="random" />
    <vehicle id="E26_to_E23_260" type="standard_car" route="E26_to_E23" depart="1040.0" departLane="random" />
    <vehicle id="E26_to_-E8_261" type="standard_car" route="E26_to_-E8" depart="1044.0" departLane="random" />
    <vehicle id="-E23_to_E24_262" type="standard_car" route="-E23_to_E24" depart="1044.0" departLane="random" />
    <vehicle id="E26_to_-E8_263" type="standard_car" route="E26_to_-E8" depart="1044.0" departLane="random" />
    <vehicle id="E26_to_-E8_264" type="standard_car" route="E26_to_-E8" depart="1049.0" departLane="random" />
    <vehicle id="E8_to_E23_265" type="standard_car" route="E8_to_E23" depart="1053.0" departLane="random" />
    <vehicle id="E8_to_E24_266" type="standard_car" route="E8_to_E24" depart="1053.0" departLane="random" />
    <vehicle id="E26_to_-E8_267" type="standard_car" route="E26_to_-E8" depart="1055.0" departLane="random" />
    <vehicle id="E26_to_-E8_268" type="standard_car" route="E26_to_-E8" depart="1055.0" departLane="random" />
    <vehicle id="E26_to_-E8_269" type="standard_car" route="E26_to_-E8" depart="1055.0" departLane="random" />