<?xml version="1.0" encoding="UTF-8"?>

<!-- generated on 2022-06-03 17:11:21 by Eclipse SUMO netedit Version 1.13.0
<configuration xmlns:xsi="http://www.w3.org/2001/XMLSchema-instance" xsi:noNamespaceSchemaLocation="http://sumo.dlr.de/xsd/netconvertConfiguration.xsd">

    <input>
        <sumo-net-file value="MIA.net.xml"/>
    </input>

    <output>
        <output-file value="MIA.net.xml"/>
    </output>

    <processing>
        <geometry.min-radius.fix.railways value="false"/>
        <geometry.max-grade.fix value="false"/>
        <offset.disable-normalization value="true"/>
        <lefthand value="false"/>
    </processing>

    <junctions>
        <no-turnarounds value="true"/>
        <junctions.corner-detail value="5"/>
        <junctions.limit-turn-speed value="5.5"/>
        <rectangular-lane-cut value="false"/>
    </junctions>

    <pedestrian>
        <walkingareas value="false"/>
    </pedestrian>

    <report>
        <aggregate-warnings value="5"/>
    </report>

</configuration>
-->

<net version="1.9" junctionCornerDetail="5" limitTurnSpeed="5.50" xmlns:xsi="http://www.w3.org/2001/XMLSchema-instance" xsi:noNamespaceSchemaLocation="http://sumo.dlr.de/xsd/net_file.xsd">

    <location netOffset="0.00,0.00" convBoundary="-4400.00,-2400.00,4500.00,40800.00" origBoundary="-10000000000.00,-10000000000.00,10000000000.00,10000000000.00" projParameter="!"/>

    <edge id=":J12_0" function="internal">
        <lane id=":J12_0_0" index="0" speed="6.70" length="6.21" shape="-73.01,-1351.08 -74.36,-1350.19 -75.33,-1349.06 -75.91,-1347.68 -76.10,-1346.08"/>
        <lane id=":J12_0_1" index="1" speed="8.25" length="9.77" shape="-74.45,-1353.94 -76.57,-1352.54 -78.09,-1350.76 -79.00,-1348.60 -79.30,-1346.07"/>
        <lane id=":J12_0_2" index="2" speed="9.55" length="13.32" shape="-75.89,-1356.80 -78.78,-1354.88 -80.85,-1352.46 -82.09,-1349.52 -82.50,-1346.07"/>
        <lane id=":J12_0_3" index="3" speed="10.69" length="16.87" shape="-77.33,-1359.66 -80.99,-1357.23 -83.61,-1354.16 -85.18,-1350.44 -85.70,-1346.07"/>
    </edge>
    <edge id=":J12_4" function="internal">
        <lane id=":J12_4_0" index="0" speed="15.28" length="12.86" shape="-88.88,-1358.91 -88.90,-1346.07"/>
        <lane id=":J12_4_1" index="1" speed="15.28" length="12.86" shape="-92.08,-1358.92 -92.10,-1346.07"/>
        <lane id=":J12_4_2" index="2" speed="15.28" length="12.86" shape="-95.28,-1358.93 -95.30,-1346.06"/>
        <lane id=":J12_4_3" index="3" speed="15.28" length="12.86" shape="-98.48,-1358.93 -98.50,-1346.06"/>
    </edge>
    <edge id=":J13_0" function="internal">
        <lane id=":J13_0_0" index="0" speed="16.67" length="27.32" shape="13.39,-1392.33 5.56,-1391.57 0.48,-1389.46 -4.32,-1386.22 -11.36,-1382.08"/>
    </edge>
    <edge id=":J13_1" function="internal">
        <lane id=":J13_1_0" index="0" speed="16.67" length="30.22" shape="13.40,-1395.53 -16.82,-1395.47"/>
        <lane id=":J13_1_1" index="1" speed="16.67" length="30.22" shape="13.40,-1398.73 -16.83,-1398.67"/>
    </edge>
    <edge id=":J4_0" function="internal">
        <lane id=":J4_0_0" index="0" speed="16.67" length="10.17" shape="-114.40,-1196.00 -115.40,-1198.69 -117.60,-1200.01 -119.80,-1201.32 -120.80,-1204.02"/>
        <lane id=":J4_0_1" index="1" speed="16.67" length="10.17" shape="-111.20,-1196.00 -112.20,-1198.69 -114.40,-1200.01 -116.60,-1201.32 -117.60,-1204.02"/>
        <lane id=":J4_0_2" index="2" speed="16.67" length="10.17" shape="-108.00,-1196.00 -109.00,-1198.69 -111.20,-1200.01 -113.40,-1201.32 -114.40,-1204.02"/>
        <lane id=":J4_0_3" index="3" speed="16.67" length="10.17" shape="-104.80,-1196.00 -105.80,-1198.69 -108.00,-1200.01 -110.20,-1201.32 -111.20,-1204.02"/>
        <lane id=":J4_0_4" index="4" speed="16.67" length="10.17" shape="-101.60,-1196.00 -102.60,-1198.69 -104.80,-1200.01 -107.00,-1201.32 -108.00,-1204.02"/>
        <lane id=":J4_0_5" index="5" speed="16.67" length="10.17" shape="-101.60,-1196.00 -102.10,-1198.47 -103.20,-1200.01 -104.30,-1201.55 -104.80,-1204.02"/>
        <lane id=":J4_0_6" index="6" speed="16.67" length="10.17" shape="-101.60,-1196.00 -101.60,-1204.02"/>
    </edge>
    <edge id=":J4_7" function="internal">
        <lane id=":J4_7_0" index="0" speed="16.67" length="8.82" shape="-76.00,-1204.02 -76.50,-1201.55 -77.60,-1200.01 -78.70,-1198.47 -79.20,-1196.00"/>
        <lane id=":J4_7_1" index="1" speed="16.67" length="8.82" shape="-79.20,-1204.02 -79.70,-1201.55 -80.80,-1200.01 -81.90,-1198.47 -82.40,-1196.00"/>
        <lane id=":J4_7_2" index="2" speed="16.67" length="8.82" shape="-82.40,-1204.02 -82.90,-1201.55 -84.00,-1200.01 -85.10,-1198.47 -85.60,-1196.00"/>
        <lane id=":J4_7_3" index="3" speed="16.67" length="8.82" shape="-85.60,-1204.02 -86.10,-1201.55 -87.20,-1200.01 -88.30,-1198.47 -88.80,-1196.00"/>
        <lane id=":J4_7_4" index="4" speed="16.67" length="8.82" shape="-88.80,-1204.02 -89.30,-1201.55 -90.40,-1200.01 -91.50,-1198.47 -92.00,-1196.00"/>
        <lane id=":J4_7_5" index="5" speed="16.67" length="8.82" shape="-92.00,-1204.02 -92.50,-1201.55 -93.60,-1200.01 -94.70,-1198.47 -95.20,-1196.00"/>
        <lane id=":J4_7_6" index="6" speed="16.67" length="8.82" shape="-95.20,-1204.02 -95.70,-1201.55 -96.80,-1200.01 -97.90,-1198.47 -98.40,-1196.00"/>
    </edge>
    <edge id=":MIA_0" function="internal">
        <lane id=":MIA_0_0" index="0" speed="6.50" length="9.01" shape="-120.80,-1383.22 -121.15,-1385.66 -122.20,-1387.41 -123.95,-1388.45 -126.40,-1388.80"/>
    </edge>
    <edge id=":MIA_1" function="internal">
        <lane id=":MIA_1_0" index="0" speed="16.67" length="37.52" shape="-117.60,-1383.22 -116.60,-1394.22 -114.40,-1401.61 -112.20,-1409.00 -111.20,-1420.00"/>
        <lane id=":MIA_1_1" index="1" speed="16.67" length="37.52" shape="-114.40,-1383.21 -113.40,-1394.21 -111.20,-1401.61 -109.00,-1409.00 -108.00,-1420.00"/>
        <lane id=":MIA_1_2" index="2" speed="16.67" length="37.52" shape="-111.20,-1383.21 -110.20,-1394.21 -108.00,-1401.61 -105.80,-1409.00 -104.80,-1420.00"/>
        <lane id=":MIA_1_3" index="3" speed="16.67" length="37.52" shape="-108.00,-1383.21 -107.00,-1394.21 -104.80,-1401.60 -102.60,-1409.00 -101.60,-1420.00"/>
    </edge>
    <edge id=":MIA_5" function="internal">
        <lane id=":MIA_5_0" index="0" speed="12.72" length="37.45" shape="-104.80,-1383.20 -103.25,-1392.65 -98.60,-1399.40 -90.85,-1403.45 -80.00,-1404.80"/>
        <lane id=":MIA_5_1" index="1" speed="11.84" length="32.29" shape="-101.60,-1383.20 -100.25,-1391.25 -96.20,-1397.00 -89.45,-1400.45 -80.00,-1401.60"/>
    </edge>
    <edge id=":MIA_7" function="internal">
        <lane id=":MIA_7_0" index="0" speed="16.67" length="46.59" shape="-80.00,-1395.27 -88.66,-1394.24 -99.45,-1392.02 -112.12,-1389.81 -126.40,-1388.80"/>
        <lane id=":MIA_7_1" index="1" speed="16.67" length="46.59" shape="-80.00,-1395.27 -126.40,-1392.00"/>
        <lane id=":MIA_7_2" index="2" speed="16.67" length="46.59" shape="-80.00,-1398.47 -126.40,-1395.20"/>
        <lane id=":MIA_7_3" index="3" speed="16.67" length="46.59" shape="-80.00,-1398.47 -126.40,-1398.40"/>
    </edge>
    <edge id=":MIA_11" function="internal">
        <lane id=":MIA_11_0" index="0" speed="12.70" length="37.43" shape="-80.00,-1398.47 -90.85,-1399.78 -98.60,-1403.81 -103.25,-1410.55 -104.80,-1420.00"/>
        <lane id=":MIA_11_1" index="1" speed="12.26" length="34.81" shape="-80.00,-1398.47 -89.45,-1399.79 -96.20,-1403.81 -100.25,-1410.55 -101.60,-1420.00"/>
    </edge>
    <edge id=":MIA_13" function="internal">
        <lane id=":MIA_13_0" index="0" speed="7.33" length="11.73" shape="-85.60,-1420.00 -85.25,-1416.15 -84.20,-1413.40 -82.45,-1411.75 -80.00,-1411.20"/>
    </edge>
    <edge id=":MIA_14" function="internal">
        <lane id=":MIA_14_0" index="0" speed="15.28" length="36.99" shape="-85.60,-1420.00 -86.10,-1409.05 -87.20,-1401.59 -88.31,-1394.14 -88.83,-1383.19"/>
        <lane id=":MIA_14_1" index="1" speed="15.28" length="36.99" shape="-88.80,-1420.00 -89.30,-1409.05 -90.40,-1401.60 -91.51,-1394.14 -92.03,-1383.19"/>
        <lane id=":MIA_14_2" index="2" speed="15.28" length="36.99" shape="-92.00,-1420.00 -92.50,-1409.05 -93.60,-1401.60 -94.71,-1394.14 -95.23,-1383.20"/>
        <lane id=":MIA_14_3" index="3" speed="15.28" length="36.99" shape="-95.20,-1420.00 -95.70,-1409.05 -96.80,-1401.60 -97.91,-1394.14 -98.43,-1383.20"/>
    </edge>
    <edge id=":MIA_18" function="internal">
        <lane id=":MIA_18_0" index="0" speed="13.54" length="42.61" shape="-98.40,-1420.00 -100.15,-1409.15 -105.40,-1401.40 -114.15,-1396.75 -126.40,-1395.20"/>
        <lane id=":MIA_18_1" index="1" speed="13.15" length="40.13" shape="-98.40,-1420.00 -100.15,-1410.55 -105.40,-1403.80 -114.15,-1399.75 -126.40,-1398.40"/>
    </edge>
    <edge id=":MIA_20" function="internal">
        <lane id=":MIA_20_0" index="0" speed="8.83" length="17.50" shape="-126.40,-1414.40 -119.75,-1414.75 -115.00,-1415.80 -112.15,-1417.55 -111.20,-1420.00"/>
    </edge>
    <edge id=":MIA_21" function="internal">
        <lane id=":MIA_21_0" index="0" speed="16.67" length="46.51" shape="-126.40,-1411.20 -80.00,-1408.00"/>
        <lane id=":MIA_21_1" index="1" speed="16.67" length="46.51" shape="-126.40,-1408.00 -80.00,-1404.80"/>
        <lane id=":MIA_21_2" index="2" speed="16.67" length="46.51" shape="-126.40,-1404.80 -80.00,-1401.60"/>
    </edge>
    <edge id=":MIA_24" function="internal">
        <lane id=":MIA_24_0" index="0" speed="13.20" length="40.51" shape="-126.40,-1401.60 -112.75,-1400.45 -103.01,-1397.00 -97.17,-1391.25 -95.23,-1383.20"/>
        <lane id=":MIA_24_1" index="1" speed="12.75" length="37.72" shape="-126.40,-1401.60 -114.15,-1400.45 -105.41,-1397.00 -100.17,-1391.25 -98.43,-1383.20"/>
    </edge>

    <edge id="-E10" from="J11" to="MIA" priority="-1" length="1000.00">
        <lane id="-E10_0" index="0" speed="16.67" length="1000.00" shape="-85.60,-2400.00 -85.60,-1420.00"/>
        <lane id="-E10_1" index="1" speed="16.67" length="1000.00" shape="-88.80,-2400.00 -88.80,-1420.00"/>
        <lane id="-E10_2" index="2" speed="16.67" length="1000.00" shape="-92.00,-2400.00 -92.00,-1420.00"/>
        <lane id="-E10_3" index="3" speed="16.67" length="1000.00" shape="-95.20,-2400.00 -95.20,-1420.00"/>
        <lane id="-E10_4" index="4" speed="16.67" length="1000.00" shape="-98.40,-2400.00 -98.40,-1420.00"/>
    </edge>
    <edge id="-E3" from="J4" to="J0" priority="-1">
        <lane id="-E3_0" index="0" speed="16.67" length="796.00" shape="-79.20,-1196.00 -79.20,-400.00"/>
        <lane id="-E3_1" index="1" speed="16.67" length="796.00" shape="-82.40,-1196.00 -82.40,-400.00"/>
        <lane id="-E3_2" index="2" speed="16.67" length="796.00" shape="-85.60,-1196.00 -85.60,-400.00"/>
        <lane id="-E3_3" index="3" speed="16.67" length="796.00" shape="-88.80,-1196.00 -88.80,-400.00"/>
        <lane id="-E3_4" index="4" speed="16.67" length="796.00" shape="-92.00,-1196.00 -92.00,-400.00"/>
        <lane id="-E3_5" index="5" speed="16.67" length="796.00" shape="-95.20,-1196.00 -95.20,-400.00"/>
        <lane id="-E3_6" index="6" speed="16.67" length="796.00" shape="-98.40,-1196.00 -98.40,-400.00"/>
    </edge>
    <edge id="-E9" from="MIA" to="J10" priority="-1" length="1000.00">
        <lane id="-E9_0" index="0" speed="16.67" length="1000.00" shape="-126.40,-1388.80 -1100.00,-1388.80"/>
        <lane id="-E9_1" index="1" speed="16.67" length="1000.00" shape="-126.40,-1392.00 -1100.00,-1392.00"/>
        <lane id="-E9_2" index="2" speed="16.67" length="1000.00" shape="-126.40,-1395.20 -1100.00,-1395.20"/>
        <lane id="-E9_3" index="3" speed="16.67" length="1000.00" shape="-126.40,-1398.40 -1100.00,-1398.40"/>
    </edge>
    <edge id="E10" from="MIA" to="J11" priority="-1" length="1000.00">
        <lane id="E10_0" index="0" speed="16.67" length="1000.00" shape="-111.20,-1420.00 -111.20,-2400.00"/>
        <lane id="E10_1" index="1" speed="16.67" length="1000.00" shape="-108.00,-1420.00 -108.00,-2400.00"/>
        <lane id="E10_2" index="2" speed="16.67" length="1000.00" shape="-104.80,-1420.00 -104.80,-2400.00"/>
        <lane id="E10_3" index="3" speed="16.67" length="1000.00" shape="-101.60,-1420.00 -101.60,-2400.00"/>
    </edge>
    <edge id="E12" from="MIA" to="J12" priority="-1">
        <lane id="E12_0" index="0" speed="13.89" length="24.27" shape="-88.83,-1383.19 -88.88,-1358.91"/>
        <lane id="E12_1" index="1" speed="13.89" length="24.27" shape="-92.03,-1383.19 -92.08,-1358.92"/>
        <lane id="E12_2" index="2" speed="13.89" length="24.27" shape="-95.23,-1383.20 -95.28,-1358.93"/>
        <lane id="E12_3" index="3" speed="13.89" length="24.27" shape="-98.43,-1383.20 -98.48,-1358.93"/>
    </edge>
    <edge id="E13" from="J12" to="J4" priority="-1" length="300.00">
        <lane id="E13_0" index="0" speed="16.67" length="300.00" shape="-76.10,-1346.08 -76.00,-1204.02"/>
        <lane id="E13_1" index="1" speed="16.67" length="300.00" shape="-79.30,-1346.07 -79.20,-1204.02"/>
        <lane id="E13_2" index="2" speed="16.67" length="300.00" shape="-82.50,-1346.07 -82.40,-1204.02"/>
        <lane id="E13_3" index="3" speed="16.67" length="300.00" shape="-85.70,-1346.07 -85.60,-1204.02"/>
        <lane id="E13_4" index="4" speed="16.67" length="300.00" shape="-88.90,-1346.07 -88.80,-1204.02"/>
        <lane id="E13_5" index="5" speed="16.67" length="300.00" shape="-92.10,-1346.07 -92.00,-1204.02"/>
        <lane id="E13_6" index="6" speed="16.67" length="300.00" shape="-95.30,-1346.06 -95.20,-1204.02"/>
        <lane id="E13_7" index="7" speed="16.67" length="300.00" shape="-98.50,-1346.06 -98.40,-1204.02"/>
    </edge>
    <edge id="E14" from="J8" to="J13" priority="-1" length="900.00">
        <lane id="E14_0" index="0" speed="16.67" length="900.00" shape="900.00,-1392.00 13.39,-1392.33"/>
        <lane id="E14_1" index="1" speed="16.67" length="900.00" shape="900.00,-1395.20 13.40,-1395.53"/>
        <lane id="E14_2" index="2" speed="16.67" length="900.00" shape="900.00,-1398.40 13.40,-1398.73"/>
    </edge>
    <edge id="E15" from="J13" to="MIA" priority="-1" length="100.00">
        <lane id="E15_0" index="0" speed="16.67" length="100.00" shape="-16.82,-1395.47 -80.00,-1395.27"/>
        <lane id="E15_1" index="1" speed="16.67" length="100.00" shape="-16.83,-1398.67 -80.00,-1398.47"/>
    </edge>
    <edge id="E16" from="J13" to="J12" priority="-1" length="100.00">
        <lane id="E16_0" index="0" speed="16.67" length="100.00" shape="-11.36,-1382.08 -73.01,-1351.08"/>
        <lane id="E16_1" index="1" speed="16.67" length="100.00" shape="-12.79,-1384.94 -74.45,-1353.94"/>
        <lane id="E16_2" index="2" speed="16.67" length="100.00" shape="-14.23,-1387.80 -75.89,-1356.80"/>
        <lane id="E16_3" index="3" speed="16.67" length="100.00" shape="-15.67,-1390.66 -77.33,-1359.66"/>
    </edge>
    <edge id="E3" from="J0" to="J4" priority="-1">
        <lane id="E3_0" index="0" speed="16.67" length="796.00" shape="-114.40,-400.00 -114.40,-1196.00"/>
        <lane id="E3_1" index="1" speed="16.67" length="796.00" shape="-111.20,-400.00 -111.20,-1196.00"/>
        <lane id="E3_2" index="2" speed="16.67" length="796.00" shape="-108.00,-400.00 -108.00,-1196.00"/>
        <lane id="E3_3" index="3" speed="16.67" length="796.00" shape="-104.80,-400.00 -104.80,-1196.00"/>
        <lane id="E3_4" index="4" speed="16.67" length="796.00" shape="-101.60,-400.00 -101.60,-1196.00"/>
    </edge>
    <edge id="E5" from="J4" to="MIA" priority="-1" length="300.00">
        <lane id="E5_0" index="0" speed="16.67" length="300.00" shape="-120.80,-1204.02 -120.80,-1383.22"/>
        <lane id="E5_1" index="1" speed="16.67" length="300.00" shape="-117.60,-1204.02 -117.60,-1383.22"/>
        <lane id="E5_2" index="2" speed="16.67" length="300.00" shape="-114.40,-1204.02 -114.40,-1383.21"/>
        <lane id="E5_3" index="3" speed="16.67" length="300.00" shape="-111.20,-1204.02 -111.20,-1383.21"/>
        <lane id="E5_4" index="4" speed="16.67" length="300.00" shape="-108.00,-1204.02 -108.00,-1383.21"/>
        <lane id="E5_5" index="5" speed="16.67" length="300.00" shape="-104.80,-1204.02 -104.80,-1383.20"/>
        <lane id="E5_6" index="6" speed="16.67" length="300.00" shape="-101.60,-1204.02 -101.60,-1383.20"/>
    </edge>
    <edge id="E6" from="MIA" to="J8" priority="-1" length="1000.00">
        <lane id="E6_0" index="0" speed="16.67" length="1000.00" shape="-80.00,-1411.20 900.00,-1411.20"/>
        <lane id="E6_1" index="1" speed="16.67" length="1000.00" shape="-80.00,-1408.00 900.00,-1408.00"/>
        <lane id="E6_2" index="2" speed="16.67" length="1000.00" shape="-80.00,-1404.80 900.00,-1404.80"/>
        <lane id="E6_3" index="3" speed="16.67" length="1000.00" shape="-80.00,-1401.60 900.00,-1401.60"/>
    </edge>
    <edge id="E9" from="J10" to="MIA" priority="-1" length="1000.00">
        <lane id="E9_0" index="0" speed="16.67" length="1000.00" shape="-1100.00,-1414.40 -126.40,-1414.40"/>
        <lane id="E9_1" index="1" speed="16.67" length="1000.00" shape="-1100.00,-1411.20 -126.40,-1411.20"/>
        <lane id="E9_2" index="2" speed="16.67" length="1000.00" shape="-1100.00,-1408.00 -126.40,-1408.00"/>
        <lane id="E9_3" index="3" speed="16.67" length="1000.00" shape="-1100.00,-1404.80 -126.40,-1404.80"/>
        <lane id="E9_4" index="4" speed="16.67" length="1000.00" shape="-1100.00,-1401.60 -126.40,-1401.60"/>
    </edge>

    <tlLogic id="MIA" type="static" programID="0" offset="0">
        <phase duration="10" state="rGGGGrrrrrrrrrGGGGrrrrrrrrr"/>
        <phase duration="5"  state="ryyyyrrrrrrrrrGGGGrrrrrrrrr"/>
        <phase duration="10" state="rrrrrrrrrrrrrrGGGGGGGGrrrrr"/>
        <phase duration="5"  state="rrrrrrrrrrrrrryyyyyyyyrrrrr"/>
        <phase duration="10" state="GrrrrrrrrrrrrrrrrrrrrrGGGgg"/>
        <phase duration="5"  state="yrrrrrrrrrrrrrrrrrrrrryyyyy"/>
        <phase duration="10" state="rrrrrrrGGGGGGGrrrrrrrrrrrrr"/>
        <phase duration="5"  state="rrrrrrryyyyyyyrrrrrrrrrrrrr"/>
        <phase duration="10" state="rGGGGGGrrrrrrrrrrrrrrrrrrrr"/>
        <phase duration="5"  state="ryyyyyyrrrrrrrrrrrrrrrrrrrr"/>
    </tlLogic>

    <junction id="J0" type="dead_end" x="-100.00" y="-400.00" incLanes="-E3_0 -E3_1 -E3_2 -E3_3 -E3_4 -E3_5 -E3_6" intLanes="" shape="-100.00,-400.00 -77.60,-400.00 -100.00,-400.00"/>
    <junction id="J10" type="dead_end" x="-1100.00" y="-1400.00" incLanes="-E9_0 -E9_1 -E9_2 -E9_3" intLanes="" shape="-1100.00,-1400.00 -1100.00,-1387.20 -1100.00,-1400.00"/>
    <junction id="J11" type="dead_end" x="-100.00" y="-2400.00" incLanes="E10_0 E10_1 E10_2 E10_3" intLanes="" shape="-100.00,-2400.00 -112.80,-2400.00 -100.00,-2400.00"/>
    <junction id="J12" type="priority" x="-100.10" y="-1350.00" incLanes="E16_0 E16_1 E16_2 E16_3 E12_0 E12_1 E12_2 E12_3" intLanes=":J12_0_0 :J12_0_1 :J12_0_2 :J12_0_3 :J12_4_0 :J12_4_1 :J12_4_2 :J12_4_3" shape="-100.10,-1346.06 -74.50,-1346.08 -74.25,-1347.57 -73.95,-1348.21 -73.52,-1348.76 -72.97,-1349.25 -72.29,-1349.65 -78.04,-1361.09 -80.87,-1359.74 -83.18,-1358.78 -84.98,-1358.22 -86.26,-1358.06 -87.03,-1358.29 -87.28,-1358.91 -100.08,-1358.94">
        <request index="0" response="00000000" foes="00000000" cont="0"/>
        <request index="1" response="00000000" foes="00000000" cont="0"/>
        <request index="2" response="00000000" foes="00000000" cont="0"/>
        <request index="3" response="00000000" foes="00000000" cont="0"/>
        <request index="4" response="00000000" foes="00000000" cont="0"/>
        <request index="5" response="00000000" foes="00000000" cont="0"/>
        <request index="6" response="00000000" foes="00000000" cont="0"/>
        <request index="7" response="00000000" foes="00000000" cont="0"/>
    </junction>
    <junction id="J13" type="priority" x="0.00" y="-1400.33" incLanes="E14_0 E14_1 E14_2" intLanes=":J13_0_0 :J13_1_0 :J13_1_1" shape="13.39,-1390.73 13.40,-1400.33 -16.83,-1400.27 -16.81,-1393.87 -16.39,-1392.09 -10.64,-1380.65 -5.72,-1383.43 -2.13,-1385.87 0.86,-1387.89 3.96,-1389.42 7.90,-1390.39">
        <request index="0" response="000" foes="000" cont="0"/>
        <request index="1" response="000" foes="000" cont="0"/>
        <request index="2" response="000" foes="000" cont="0"/>
    </junction>
    <junction id="J14" type="dead_end" x="4500.00" y="32000.00" incLanes="" intLanes="" shape="4500.00,32000.00"/>
    <junction id="J16" type="dead_end" x="3000.00" y="2500.00" incLanes="" intLanes="" shape="3000.00,2500.00"/>
    <junction id="J17" type="dead_end" x="-3100.00" y="2500.00" incLanes="" intLanes="" shape="-3100.00,2500.00"/>
    <junction id="J21" type="dead_end" x="3200.00" y="6900.00" incLanes="" intLanes="" shape="3200.00,6900.00"/>
    <junction id="J22" type="dead_end" x="-3100.00" y="6900.00" incLanes="" intLanes="" shape="-3100.00,6900.00"/>
    <junction id="J26" type="dead_end" x="-3900.00" y="10200.00" incLanes="" intLanes="" shape="-3900.00,10200.00"/>
    <junction id="J27" type="dead_end" x="-100.00" y="13300.00" incLanes="" intLanes="" shape="-100.00,13300.00"/>
    <junction id="J28" type="dead_end" x="4300.00" y="38000.00" incLanes="" intLanes="" shape="4300.00,38000.00"/>
    <junction id="J29" type="dead_end" x="-100.00" y="11700.00" incLanes="" intLanes="" shape="-100.00,11700.00"/>
    <junction id="J32" type="dead_end" x="3000.00" y="10200.00" incLanes="" intLanes="" shape="3000.00,10200.00"/>
    <junction id="J34" type="dead_end" x="0.00" y="11700.00" incLanes="" intLanes="" shape="0.00,11700.00"/>
    <junction id="J36" type="dead_end" x="3000.00" y="24200.00" incLanes="" intLanes="" shape="3000.00,24200.00"/>
    <junction id="J37" type="dead_end" x="-3400.00" y="24200.00" incLanes="" intLanes="" shape="-3400.00,24200.00"/>
    <junction id="J38" type="dead_end" x="-100.00" y="28600.00" incLanes="" intLanes="" shape="-100.00,28600.00"/>
    <junction id="J39" type="dead_end" x="-100.00" y="40800.00" incLanes="" intLanes="" shape="-100.00,40800.00"/>
    <junction id="J4" type="priority" x="-100.00" y="-1200.00" incLanes="E3_0 E3_1 E3_2 E3_3 E3_4 E13_0 E13_1 E13_2 E13_3 E13_4 E13_5 E13_6 E13_7" intLanes=":J4_0_0 :J4_0_1 :J4_0_2 :J4_0_3 :J4_0_4 :J4_0_5 :J4_0_6 :J4_7_0 :J4_7_1 :J4_7_2 :J4_7_3 :J4_7_4 :J4_7_5 :J4_7_6" shape="-116.00,-1196.00 -77.60,-1196.00 -76.77,-1199.04 -75.23,-1200.98 -74.64,-1202.22 -74.40,-1204.02 -122.40,-1204.02 -121.93,-1202.00 -120.74,-1200.80 -117.66,-1199.22 -116.47,-1198.02">
        <request index="0"  response="00000000000000" foes="00000000000000" cont="0"/>
        <request index="1"  response="00000000000000" foes="00000000000000" cont="0"/>
        <request index="2"  response="00000000000000" foes="00000000000000" cont="0"/>
        <request index="3"  response="00000000000000" foes="00000000000000" cont="0"/>
        <request index="4"  response="00000000000000" foes="00000000000000" cont="0"/>
        <request index="5"  response="00000000000000" foes="00000000000000" cont="0"/>
        <request index="6"  response="00000000000000" foes="00000000000000" cont="0"/>
        <request index="7"  response="00000000000000" foes="00000000000000" cont="0"/>
        <request index="8"  response="00000000000000" foes="00000000000000" cont="0"/>
        <request index="9"  response="00000000000000" foes="00000000000000" cont="0"/>
        <request index="10" response="00000000000000" foes="00000000000000" cont="0"/>
        <request index="11" response="00000000000000" foes="00000000000000" cont="0"/>
        <request index="12" response="00000000000000" foes="00000000000000" cont="0"/>
        <request index="13" response="00000000000000" foes="00000000000000" cont="0"/>
    </junction>
    <junction id="J40" type="dead_end" x="-4400.00" y="38000.00" incLanes="" intLanes="" shape="-4400.00,38000.00"/>
    <junction id="J8" type="dead_end" x="900.00" y="-1400.00" incLanes="E6_0 E6_1 E6_2 E6_3" intLanes="" shape="900.00,-1400.00 900.00,-1390.40 900.00,-1412.80"/>
    <junction id="MIA" type="traffic_light" x="-100.00" y="-1400.00" incLanes="E5_0 E5_1 E5_2 E5_3 E5_4 E5_5 E5_6 E15_0 E15_1 -E10_0 -E10_1 -E10_2 -E10_3 -E10_4 E9_0 E9_1 E9_2 E9_3 E9_4" intLanes=":MIA_0_0 :MIA_1_0 :MIA_1_1 :MIA_1_2 :MIA_1_3 :MIA_5_0 :MIA_5_1 :MIA_7_0 :MIA_7_1 :MIA_7_2 :MIA_7_3 :MIA_11_0 :MIA_11_1 :MIA_13_0 :MIA_14_0 :MIA_14_1 :MIA_14_2 :MIA_14_3 :MIA_18_0 :MIA_18_1 :MIA_20_0 :MIA_21_0 :MIA_21_1 :MIA_21_2 :MIA_24_0 :MIA_24_1" shape="-122.40,-1383.20 -87.23,-1383.13 -87.03,-1386.34 -86.42,-1388.97 -85.41,-1391.02 -84.01,-1392.48 -82.20,-1393.37 -80.00,-1393.67 -80.00,-1412.80 -82.22,-1413.60 -83.00,-1414.60 -83.56,-1416.00 -83.89,-1417.80 -84.00,-1420.00 -112.80,-1420.00 -114.31,-1417.78 -116.20,-1417.00 -118.84,-1416.44 -122.24,-1416.11 -126.40,-1416.00 -126.40,-1387.20 -124.18,-1386.76 -123.40,-1386.20 -122.84,-1385.42 -122.51,-1384.42">
        <request index="0"  response="00000000000000000000000000" foes="00000000000000011110000000" cont="0"/>
        <request index="1"  response="00000000000000000000000000" foes="11111111000001111110000000" cont="0"/>
        <request index="2"  response="00000000000000000000000000" foes="11111111000001111110000000" cont="0"/>
        <request index="3"  response="00000000000000000000000000" foes="11111111000001111110000000" cont="0"/>
        <request index="4"  response="00000000000000000000000000" foes="11111111000001111110000000" cont="0"/>
        <request index="5"  response="00000000111100000000000000" foes="11111000111101111110000000" cont="0"/>
        <request index="6"  response="00000000111100000000000000" foes="11111000111101111110000000" cont="0"/>
        <request index="7"  response="00000011111100000001111111" foes="11000011111100000001111111" cont="0"/>
        <request index="8"  response="00000011111100000001111111" foes="11000011111100000001111111" cont="0"/>
        <request index="9"  response="00000011111100000001111111" foes="11000011111100000001111111" cont="0"/>
        <request index="10" response="00000011111100000001111111" foes="11000011111100000001111111" cont="0"/>
        <request index="11" response="00111011111100000001111110" foes="00111011111100000001111110" cont="0"/>
        <request index="12" response="00111011111100000001111110" foes="00111011111100000001111110" cont="0"/>
        <request index="13" response="00000000000000000000000000" foes="00000000000000000000000000" cont="0"/>
        <request index="14" response="00000000000000000000000000" foes="11111000000001111111100000" cont="0"/>
        <request index="15" response="00000000000000000000000000" foes="11111000000001111111100000" cont="0"/>
        <request index="16" response="00000000000000000000000000" foes="11111000000001111111100000" cont="0"/>
        <request index="17" response="00000000000000000000000000" foes="11111000000001111111100000" cont="0"/>
        <request index="18" response="00000000000000000000011110" foes="11111000000001111110011110" cont="0"/>
        <request index="19" response="00000000000000000000011110" foes="11111000000001111110011110" cont="0"/>
        <request index="20" response="00000000000000000000011110" foes="00000000000000000000011110" cont="0"/>
        <request index="21" response="00000011111100000001111110" foes="00000011111101100001111110" cont="0"/>
        <request index="22" response="00000011111100000001111110" foes="00000011111101100001111110" cont="0"/>
        <request index="23" response="00000011111100000001111110" foes="00000011111101100001111110" cont="0"/>
        <request index="24" response="00000011111100011111111110" foes="00000011111100011111111110" cont="0"/>
        <request index="25" response="00000011111100011111111110" foes="00000011111100011111111110" cont="0"/>
    </junction>

    <connection from="-E10" to="E6" fromLane="0" toLane="0" via=":MIA_13_0" tl="MIA" linkIndex="13" dir="r" state="O"/>
    <connection from="-E10" to="E12" fromLane="0" toLane="0" via=":MIA_14_0" tl="MIA" linkIndex="14" dir="s" state="O"/>
    <connection from="-E10" to="E12" fromLane="1" toLane="1" via=":MIA_14_1" tl="MIA" linkIndex="15" dir="s" state="O"/>
    <connection from="-E10" to="E12" fromLane="2" toLane="2" via=":MIA_14_2" tl="MIA" linkIndex="16" dir="s" state="O"/>
    <connection from="-E10" to="E12" fromLane="3" toLane="3" via=":MIA_14_3" tl="MIA" linkIndex="17" dir="s" state="O"/>
    <connection from="-E10" to="-E9" fromLane="4" toLane="2" via=":MIA_18_0" tl="MIA" linkIndex="18" dir="l" state="o"/>
    <connection from="-E10" to="-E9" fromLane="4" toLane="3" via=":MIA_18_1" tl="MIA" linkIndex="19" dir="l" state="o"/>
    <connection from="E12" to="E13" fromLane="0" toLane="4" via=":J12_4_0" dir="s" state="M"/>
    <connection from="E12" to="E13" fromLane="1" toLane="5" via=":J12_4_1" dir="s" state="M"/>
    <connection from="E12" to="E13" fromLane="2" toLane="6" via=":J12_4_2" dir="s" state="M"/>
    <connection from="E12" to="E13" fromLane="3" toLane="7" via=":J12_4_3" dir="s" state="M"/>
    <connection from="E13" to="-E3" fromLane="0" toLane="0" via=":J4_7_0" dir="s" state="M"/>
    <connection from="E13" to="-E3" fromLane="1" toLane="1" via=":J4_7_1" dir="s" state="M"/>
    <connection from="E13" to="-E3" fromLane="2" toLane="2" via=":J4_7_2" dir="s" state="M"/>
    <connection from="E13" to="-E3" fromLane="3" toLane="3" via=":J4_7_3" dir="s" state="M"/>
    <connection from="E13" to="-E3" fromLane="4" toLane="4" via=":J4_7_4" dir="s" state="M"/>
    <connection from="E13" to="-E3" fromLane="5" toLane="5" via=":J4_7_5" dir="s" state="M"/>
    <connection from="E13" to="-E3" fromLane="6" toLane="6" via=":J4_7_6" dir="s" state="M"/>
    <connection from="E14" to="E16" fromLane="0" toLane="0" via=":J13_0_0" dir="R" state="M"/>
    <connection from="E14" to="E15" fromLane="1" toLane="0" via=":J13_1_0" dir="s" state="M"/>
    <connection from="E14" to="E15" fromLane="2" toLane="1" via=":J13_1_1" dir="s" state="M"/>