<routes>
    <vType accel="0.8" id="standard_car" decel="4.5" length="5.0" minGap="2.5" maxSpeed="16.67" sigma="0.5" />
    
    <route id="-E10_to_E6" edges="-E10 E6" />
    <route id="-E10_to_E12" edges="-E10 E12" />
    <route id="-E10_to_-E9" edges="-E10 -E9" />
    <route id="E15_to_-E9" edges="E15 -E9" />
    <route id="E15_to_E10" edges="E15 E10" />
    <route id="E5_to_-E9" edges="E5 -E9" />
    <route id="E5_to_E10" edges="E5 E10" />
    <route id="E5_to_E6" edges="E5 E6" />
    <route id="E9_to_E10" edges="E9 E10" />
    <route id="E9_to_E6" edges="E9 E6" />
    <route id="E9_to_E12" edges="E9 E12" />
    <vehicles id="E5_to_E10_0" type="standard_car" route="E5_to_E10" depart="28.0" departLane="random" />
    <vehicles id="E9_to_E6_1" type="standard_car" route="E9_to_E6" depart="45.0" departLane="random" />
    <vehicle id="E15_to_E10_2" type="standard_car" route="E15_to_E10" depart="62.0" departLane="random" />
    <vehicles id="E5_to_E10_3" type="standard_car" route="E5_to_E10" depart="75.0" departLane="random" />
    <vehicles id="E5_to_E10_4" type="standard_car" route="E5_to_E10" depart="82.0" departLane="random" />
    <vehicles id="E5_to_E10_5" type="standard_car" route="E5_to_E10" depart="86.0" departLane="random" />
    <vehicle id="E15_to_-E9_6" type="standard_car" route="E15_to_-E9" depart="107.0" departLane="random" />
    <vehicles id="E9_to_E6_7" type="standard_car" route="E9_to_E6" depart="129.0" departLane="random" />
    <vehicles id="E5_to_E10_8" type="standard_car" route="E5_to_E10" depart="130.0" departLane="random" />
    <vehicles id="E9_to_E6_9" type="standard_car" route="E9_to_E6" depart="132.0" departLane="random" />
    <vehicles id="E5_to_E10_10" type="standard_car" route="E5_to_E10" depart="133.0" departLane="random" />
    <vehicle id="-E10_to_-E9_11" type="standard_car" route="-E10_to_-E9" depart="139.0" departLane="random" />
    <vehicles id="E9_to_E6_12" type="standard_car" route="E9_to_E6" depart="150.0" departLane="random" />
    <vehicles id="E5_to_E10_13" type="standard_car" route="E5_to_E10" depart="154.0" departLane="random" />
    <vehicle id="E15_to_E10_14" type="standard_car" route="E15_to_E10" depart="154.0" departLane="random" />
    <vehicle id="E9_to_E12_15" type="standard_car" route="E9_to_E12" depart="157.0" departLane="random" />
    <vehicle id="E9_to_E12_16" type="standard_car" route="E9_to_E12" depart="164.0" departLane="random" />
    <vehicles id="E9_to_E6_17" type="standard_car" route="E9_to_E6" depart="165.0" departLane="random" />
    <vehicles id="E5_to_E10_18" type="standard_car" route="E5_to_E10" depart="167.0" departLane="random" />
    <vehicles id="E9_to_E6_19" type="standard_car" route="E9_to_E6" depart="167.0" departLane="random" />
    <vehicles id="E9_to_E6_20" type="standard_car" route="E9_to_E6" depart="171.0" departLane="random" />
    <vehicle id="E9_to_E10_21" type="standard_car" route="E9_to_E10" depart="172.0" departLane="random" />
    <vehicle id="-E10_to_E12_22" type="standard_car" route="-E10_to_E12" depart="173.0" departLane="random" />
    <vehicle id="E9_to_E12_23" type="standard_car" route="E9_to_E12" depart="188.0" departLane="random" />
    <vehicle id="-E10_to_-E9_24" type="standard_car" route="-E10_to_-E9" depart="190.0" departLane="random" />
    <vehicles id="E9_to_E6_25" type="standard_car" route="E9_to_E6" depart="193.0" departLane="random" />
    <vehicles id="E5_to_E10_26" type="standard_car" route="E5_to_E10" depart="206.0" departLane="random" />
    <vehicle id="E9_to_E12_27" type="standard_car" route="E9_to_E12" depart="207.0" departLane="random" />
    <vehicles id="E9_to_E6_28" type="standard_car" route="E9_to_E6" depart="209.0" departLane="random" />
    <vehicle id="E9_to_E12_29" type="standard_car" route="E9_to_E12" depart="210.0" departLane="random" />
    <vehicles id="E9_to_E6_30" type="standard_car" route="E9_to_E6" depart="216.0" departLane="random" />
    <vehicles id="E9_to_E6_31" type="standard_car" route="E9_to_E6" depart="220.0" departLane="random" />
    <vehicles id="E5_to_E10_32" type="standard_car" route="E5_to_E10" depart="221.0" departLane="random" />
    <vehicles id="E5_to_E10_33" type="standard_car" route="E5_to_E10" depart="228.0" departLane="random" />
    <vehicle id="E5_to_E6_34" type="standard_car" route="E5_to_E6" depart="230.0" departLane="random" />
    <vehicles id="E5_to_E10_35" type="standard_car" route="E5_to_E10" depart="238.0" departLane="random" />
    <vehicle id="E15_to_-E9_36" type="standard_car" route="E15_to_-E9" depart="240.0" departLane="random" />
    <vehicles id="E9_to_E6_37" type="standard_car" route="E9_to_E6" depart="241.0" departLane="random" />
    <vehicles id="E9_to_E6_38" type="standard_car" route="E9_to_E6" depart="242.0" departLane="random" />
    <vehicles id="E5_to_E10_39" type="standard_car" route="E5_to_E10" depart="251.0" departLane="random" />
    <vehicles id="E9_to_E6_40" type="standard_car" route="E9_to_E6" depart="256.0" departLane="random" />
    <vehicles id="E5_to_E10_41" type="standard_car" route="E5_to_E10" depart="260.0" departLane="random" />
    <vehicle id="E5_to_-E9_42" type="standard_car" route="E5_to_-E9" depart="263.0" departLane="random" />
    <vehicles id="E5_to_E10_43" type="standard_car" route="E5_to_E10" depart="268.0" departLane="random" />
    <vehicle id="-E10_to_E6_44" type="standard_car" route="-E10_to_E6" depart="270.0" departLane="random" />
    <vehicles id="E5_to_E10_45" type="standard_car" route="E5_to_E10" depart="281.0" departLane="random" />
    <vehicle id="E5_to_E6_46" type="standard_car" route="E5_to_E6" depart="284.0" departLane="random" />
    <vehicle id="E5_to_E6_47" type="standard_car" route="E5_to_E6" depart="286.0" departLane="random" />
    <vehicle id="E5_to_E6_48" type="standard_car" route="E5_to_E6" depart="290.0" departLane="random" />
    <vehicles id="E5_to_E10_49" type="standard_car" route="E5_to_E10" depart="290.0" departLane="random" />
    <vehicle id="-E10_to_-E9_50" type="standard_car" route="-E10_to_-E9" depart="293.0" departLane="random" />
    <vehicle id="E9_to_E12_51" type="standard_car" route="E9_to_E12" depart="294.0" departLane="random" />
    <vehicle id="E9_to_E12_52" type="standard_car" route="E9_to_E12" depart="295.0" departLane="random" />
    <vehicles id="E5_to_E10_53" type="standard_car" route="E5_to_E10" depart="297.0" departLane="random" />
    <vehicles id="E9_to_E6_54" type="standard_car" route="E9_to_E6" depart="298.0" departLane="random" />
    <vehicle id="E5_to_-E9_55" type="standard_car" route="E5_to_-E9" depart="299.0" departLane="random" />
    <vehicle id="E9_to_E10_56" type="standard_car" route="E9_to_E10" depart="301.0" departLane="random" />
    <vehicle id="E9_to_E12_57" type="standard_car" route="E9_to_E12" depart="305.0" departLane="random" />
    <vehicle id="E9_to_E12_58" type="standard_car" route="E9_to_E12" depart="305.0" departLane="random" />
    <vehicles id="E9_to_E6_59" type="standard_car" route="E9_to_E6" depart="307.0" departLane="random" />
    <vehicle id="E15_to_E10_60" type="standard_car" route="E15_to_E10" depart="307.0" departLane="random" />
    <vehicles id="E5_to_E10_61" type="standard_car" route="E5_to_E10" depart="309.0" departLane="random" />
    <vehicle id="E9_to_E10_62" type="standard_car" route="E9_to_E10" depart="309.0" departLane="random" />
    <vehicle id="-E10_to_E12_63" type="standard_car" route="-E10_to_E12" depart="312.0" departLane="random" />
    <vehicles id="E9_to_E6_64" type="standard_car" route="E9_to_E6" depart="313.0" departLane="random" />
    <vehicles id="E5_to_E10_65" type="standard_car" route="E5_to_E10" depart="314.0" departLane="random" />
    <vehicles id="E5_to_E10_66" type="standard_car" route="E5_to_E10" depart="317.0" departLane="random" />
    <vehicles id="E5_to_E10_67" type="standard_car" route="E5_to_E10" depart="319.0" departLane="random" />
    <vehicles id="E5_to_E10_68" type="standard_car" route="E5_to_E10" depart="321.0" departLane="random" />
    <vehicle id="E5_to_-E9_69" type="standard_car" route="E5_to_-E9" depart="321.0" departLane="random" />
    <vehicles id="E9_to_E6_70" type="standard_car" route="E9_to_E6" depart="321.0" departLane="random" />
    <vehicles id="E5_to_E10_71" type="standard_car" route="E5_to_E10" depart="323.0" departLane="random" />
    <vehicle id="-E10_to_E12_72" type="standard_car" route="-E10_to_E12" depart="325.0" departLane="random" />
    <vehicle id="-E10_to_E12_73" type="standard_car" route="-E10_to_E12" depart="326.0" departLane="random" />
    <vehicles id="E9_to_E6_74" type="standard_car" route="E9_to_E6" depart="336.0" departLane="random" />
    <vehicle id="E9_to_E10_75" type="standard_car" route="E9_to_E10" depart="338.0" departLane="random" />
    <vehicles id="E9_to_E6_76" type="standard_car" route="E9_to_E6" depart="340.0" departLane="random" />
    <vehicle id="E15_to_E10_77" type="standard_car" route="E15_to_E10" depart="345.0" departLane="random" />
    <vehicles id="E9_to_E6_78" type="standard_car" route="E9_to_E6" depart="348.0" departLane="random" />
    <vehicles id="E9_to_E6_79" type="standard_car" route="E9_to_E6" depart="349.0" departLane="random" />
    <vehicles id="E9_to_E6_80" type="standard_car" route="E9_to_E6" depart="350.0" departLane="random" />
    <vehicles id="E9_to_E6_81" type="standard_car" route="E9_to_E6" depart="354.0" departLane="random" />
    <vehicles id="E5_to_E10_82" type="standard_car" route="E5_to_E10" depart="358.0" departLane="random" />
    <vehicle id="E5_to_E6_83" type="standard_car" route="E5_to_E6" depart="362.0" departLane="random" />
    <vehicles id="E5_to_E10_84" type="standard_car" route="E5_to_E10" depart="367.0" departLane="random" />
    <vehicles id="E9_to_E6_85" type="standard_car" route="E9_to_E6" depart="368.0" departLane="random" />
    <vehicles id="E9_to_E6_86" type="standard_car" route="E9_to_E6" depart="370.0" departLane="random" />
    <vehicles id="E5_to_E10_87" type="standard_car" route="E5_to_E10" depart="377.0" departLane="random" />
    <vehicles id="E5_to_E10_88" type="standard_car" route="E5_to_E10" depart="381.0" departLane="random" />
    <vehicles id="E9_to_E6_89" type="standard_car" route="E9_to_E6" depart="382.0" departLane="random" />
    <vehicle id="E15_to_E10_90" type="standard_car" route="E15_to_E10" depart="383.0" departLane="random" />
    <vehicle id="-E10_to_-E9_91" type="standard_car" route="-E10_to_-E9" depart="384.0" departLane="random" />
    <vehicle id="E9_to_E12_92" type="standard_car" route="E9_to_E12" depart="384.0" departLane="random" />
    <vehicle id="E5_to_E6_93" type="standard_car" route="E5_to_E6" depart="384.0" departLane="random" />
    <vehicle id="E15_to_-E9_94" type="standard_car" route="E15_to_-E9" depart="385.0" departLane="random" />
    <vehicle id="E15_to_-E9_95" type="standard_car" route="E15_to_-E9" depart="385.0" departLane="random" />
    <vehicles id="E9_to_E6_96" type="standard_car" route="E9_to_E6" depart="389.0" departLane="random" />
    <vehicles id="E9_to_E6_97" type="standard_car" route="E9_to_E6" depart="389.0" departLane="random" />
    <vehicles id="E5_to_E10_98" type="standard_car" route="E5_to_E10" depart="390.0" departLane="random" />
    <vehicle id="E9_to_E10_99" type="standard_car" route="E9_to_E10" depart="390.0" departLane="random" />
    <vehicle id="E9_to_E12_100" type="standard_car" route="E9_to_E12" depart="390.0" departLane="random" />
    <vehicles id="E9_to_E6_101" type="standard_car" route="E9_to_E6" depart="394.0" departLane="random" />
    <vehicles id="E5_to_E10_102" type="standard_car" route="E5_to_E10" depart="394.0" departLane="random" />
    <vehicle id="E9_to_E10_103" type="standard_car" route="E9_to_E10" depart="396.0" departLane="random" />
    <vehicle id="-E10_to_E12_104" type="standard_car" route="-E10_to_E12" depart="399.0" departLane="random" />
    <vehicle id="E5_to_-E9_105" type="standard_car" route="E5_to_-E9" depart="401.0" departLane="random" />
    <vehicles id="E5_to_E10_106" type="standard_car" route="E5_to_E10" depart="404.0" departLane="random" />
    <vehicles id="E5_to_E10_107" type="standard_car" route="E5_to_E10" depart="404.0" departLane="random" />
    <vehicles id="E9_to_E6_108" type="standard_car" route="E9_to_E6" depart="405.0" departLane="random" />
    <vehicle id="-E10_to_E12_109" type="standard_car" route="-E10_to_E12" depart="409.0" departLane="random" />
    <vehicle id="E9_to_E10_110" type="standard_car" route="E9_to_E10" depart="410.0" departLane="random" />
    <vehicle id="E5_to_-E9_111" type="standard_car" route="E5_to_-E9" depart="411.0" departLane="random" />
    <vehicle id="-E10_to_E6_112" type="standard_car" route="-E10_to_E6" depart="413.0" departLane="random" />
    <vehicle id="E5_to_-E9_113" type="standard_car" route="E5_to_-E9" depart="414.0" departLane="random" />
    <vehicle id="E9_to_E12_114" type="standard_car" route="E9_to_E12" depart="420.0" departLane="random" />
    <vehicles id="E5_to_E10_115" type="standard_car" route="E5_to_E10" depart="421.0" departLane="random" />
    <vehicles id="E5_to_E10_116" type="standard_car" route="E5_to_E10" depart="421.0" departLane="random" />
    <vehicles id="E5_to_E10_117" type="standard_car" route="E5_to_E10" depart="421.0" departLane="random" />
    <vehicles id="E5_to_E10_118" type="standard_car" route="E5_to_E10" depart="421.0" departLane="random" />
    <vehicles id="E9_to_E6_119" type="standard_car" route="E9_to_E6" depart="424.0" departLane="random" />
    <vehicle id="E5_to_-E9_120" type="standard_car" route="E5_to_-E9" depart="424.0" departLane="random" />
    <vehicle id="E9_to_E10_121" type="standard_car" route="E9_to_E10" depart="424.0" departLane="random" />
    <vehicles id="E5_to_E10_122" type="standard_car" route="E5_to_E10" depart="424.0" departLane="random" />
    <vehicles id="E9_to_E6_123" type="standard_car" route="E9_to_E6" depart="424.0" departLane="random" />
    <vehicle id="-E10_to_-E9_124" type="standard_car" route="-E10_to_-E9" depart="426.0" departLane="random" />
    <vehicle id="-E10_to_-E9_125" type="standard_car" route="-E10_to_-E9" depart="427.0" departLane="random" />
    <vehicles id="E9_to_E6_126" type="standard_car" route="E9_to_E6" depart="429.0" departLane="random" />
    <vehicle id="E9_to_E12_127" type="standard_car" route="E9_to_E12" depart="429.0" departLane="random" />
    <vehicles id="E5_to_E10_128" type="standard_car" route="E5_to_E10" depart="436.0" departLane="random" />
    <vehicles id="E5_to_E10_129" type="standard_car" route="E5_to_E10" depart="446.0" departLane="random" />
    <vehicle id="E15_to_E10_130" type="standard_car" route="E15_to_E10" depart="446.0" departLane="random" />
    <vehicle id="-E10_to_E12_131" type="standard_car" route="-E10_to_E12" depart="450.0" departLane="random" />
    <vehicle id="-E10_to_E6_132" type="standard_car" route="-E10_to_E6" depart="450.0" departLane="random" />
    <vehicles id="E9_to_E6_133" type="standard_car" route="E9_to_E6" depart="451.0" departLane="random" />
    <vehicles id="E5_to_E10_134" type="standard_car" route="E5_to_E10" depart="451.0" departLane="random" />
    <vehicle id="-E10_to_E6_135" type="standard_car" route="-E10_to_E6" depart="452.0" departLane="random" />
    <vehicles id="E9_to_E6_136" type="standard_car" route="E9_to_E6" depart="452.0" departLane="random" />
    <vehicles id="E5_to_E10_137" type="standard_car" route="E5_to_E10" depart="454.0" departLane="random" />
    <vehicles id="E9_to_E6_138" type="standard_car" route="E9_to_E6" depart="454.0" departLane="random" />
    <vehicle id="E15_to_-E9_139" type="standard_car" route="E15_to_-E9" depart="458.0" departLane="random" />
    <vehicles id="E5_to_E10_140" type="standard_car" route="E5_to_E10" depart="460.0" departLane="random" />
    <vehicle id="E15_to_E10_141" type="standard_car" route="E15_to_E10" depart="463.0" departLane="random" />
    <vehicles id="E9_to_E6_142" type="standard_car" route="E9_to_E6" depart="464.0" departLane="random" />
    <vehicles id="E9_to_E6_143" type="standard_car" route="E9_to_E6" depart="467.0" departLane="random" />
    <vehicles id="E5_to_E10_144" type="standard_car" route="E5_to_E10" depart="467.0" departLane="random" />
    <vehicle id="-E10_to_-E9_145" type="standard_car" route="-E10_to_-E9" depart="469.0" departLane="random" />
    <vehicles id="E9_to_E6_146" type="standard_car" route="E9_to_E6" depart="472.0" departLane="random" />
    <vehicle id="-E10_to_E12_147" type="standard_car" route="-E10_to_E12" depart="475.0" departLane="random" />
    <vehicle id="E5_to_-E9_148" type="standard_car" route="E5_to_-E9" depart="478.0" departLane="random" />
    <vehicles id="E9_to_E6_149" type="standard_car" route="E9_to_E6" depart="480.0" departLane="random" />
    <vehicles id="E9_to_E6_150" type="standard_car" route="E9_to_E6" depart="480.0" departLane="random" />
    <vehicles id="E5_to_E10_151" type="standard_car" route="E5_to_E10" depart="480.0" departLane="random" />
    <vehicle id="E5_to_E6_152" type="standard_car" route="E5_to_E6" depart="481.0" departLane="random" />
    <vehicles id="E9_to_E6_153" type="standard_car" route="E9_to_E6" depart="483.0" departLane="random" />
    <vehicle id="E15_to_-E9_154" type="standard_car" route="E15_to_-E9" depart="485.0" departLane="random" />
    <vehicles id="E9_to_E6_155" type="standard_car" route="E9_to_E6" depart="488.0" departLane="random" />
    <vehicles id="E9_to_E6_156" type="standard_car" route="E9_to_E6" depart="490.0" departLane="random" />
    <vehicle id="E9_to_E12_157" type="standard_car" route="E9_to_E12" depart="495.0" departLane="random" />
    <vehicles id="E9_to_E6_158" type="standard_car" route="E9_to_E6" depart="499.0" departLane="random" />
    <vehicles id="E5_to_E10_159" type="standard_car" route="E5_to_E10" depart="500.0" departLane="random" />
    <vehicle id="-E10_to_E12_160" type="standard_car" route="-E10_to_E12" depart="500.0" departLane="random" />
    <vehicle id="E5_to_E6_161" type="standard_car" route="E5_to_E6" depart="501.0" departLane="random" />
    <vehicle id="E15_to_E10_162" type="standard_car" route="E15_to_E10" depart="501.0" departLane="random" />
    <vehicles id="E9_to_E6_163" type="standard_car" route="E9_to_E6" depart="502.0" departLane="random" />
    <vehicle id="E5_to_E6_164" type="standard_car" route="E5_to_E6" depart="502.0" departLane="random" />
    <vehicles id="E5_to_E10_165" type="standard_car" route="E5_to_E10" depart="503.0" departLane="random" />
    <vehicle id="E5_to_E6_166" type="standard_car" route="E5_to_E6" depart="505.0" departLane="random" />
    <vehicles id="E5_to_E10_167" type="standard_car" route="E5_to_E10" depart="505.0" departLane="random" />
    <vehicles id="E5_to_E10_168" type="standard_car" route="E5_to_E10" depart="505.0" departLane="random" />
    <vehicles id="E5_to_E10_169" type="standard_car" route="E5_to_E10" depart="506.0" departLane="random" />
    <vehicles id="E5_to_E10_170" type="standard_car" route="E5_to_E10" depart="509.0" departLane="random" />
    <vehicles id="E9_to_E6_171" type="standard_car" route="E9_to_E6" depart="511.0" departLane="random" />
    <vehicles id="E5_to_E10_172" type="standard_car" route="E5_to_E10" depart="516.0" departLane="random" />
    <vehicles id="E9_to_E6_173" type="standard_car" route="E9_to_E6" depart="521.0" departLane="random" />
    <vehicles id="E5_to_E10_174" type="standard_car" route="E5_to_E10" depart="521.0" departLane="random" />
    <vehicles id="E5_to_E10_175" type="standard_car" route="E5_to_E10" depart="523.0" departLane="random" />
    <vehicles id="E5_to_E10_176" type="standard_car" route="E5_to_E10" depart="526.0" departLane="random" />
    <vehicle id="E15_to_E10_177" type="standard_car" route="E15_to_E10" depart="526.0" departLane="random" />
    <vehicle id="-E10_to_-E9_178" type="standard_car" route="-E10_to_-E9" depart="527.0" departLane="random" />
    <vehicle id="E9_to_E10_179" type="standard_car" route="E9_to_E10" depart="529.0" departLane="random" />
    <vehicle id="E15_to_-E9_180" type="standard_car" route="E15_to_-E9" depart="530.0" departLane="random" />
    <vehicles id="E5_to_E10_181" type="standard_car" route="E5_to_E10" depart="532.0" departLane="random" />
    <vehicles id="E5_to_E10_182" type="standard_car" route="E5_to_E10" depart="534.0" departLane="random" />
    <vehicles id="E5_to_E10_183" type="standard_car" route="E5_to_E10" depart="534.0" departLane="random" />
    <vehicle id="E5_to_-E9_184" type="standard_car" route="E5_to_-E9" depart="536.0" departLane="random" />
    <vehicles id="E9_to_E6_185" type="standard_car" route="E9_to_E6" depart="540.0" departLane="random" />
    <vehicles id="E9_to_E6_186" type="standard_car" route="E9_to_E6" depart="540.0" departLane="random" />
    <vehicle id="E15_to_-E9_187" type="standard_car" route="E15_to_-E9" depart="540.0" departLane="random" />
    <vehicles id="E5_to_E10_188" type="standard_car" route="E5_to_E10" depart="543.0" departLane="random" />
    <vehicles id="E9_to_E6_189" type="standard_car" route="E9_to_E6" depart="544.0" departLane="random" />
    <vehicles id="E5_to_E10_190" type="standard_car" route="E5_to_E10" depart="544.0" departLane="random" />
    <vehicle id="E5_to_E6_191" type="standard_car" route="E5_to_E6" depart="545.0" departLane="random" />
    <vehicle id="E5_to_-E9_192" type="standard_car" route="E5_to_-E9" depart="546.0" departLane="random" />
    <vehicles id="E5_to_E10_193" type="standard_car" route="E5_to_E10" depart="551.0" departLane="random" />
    <vehicle id="E15_to_-E9_194" type="standard_car" route="E15_to_-E9" depart="552.0" departLane="random" />
    <vehicles id="E9_to_E6_195" type="standard_car" route="E9_to_E6" depart="561.0" departLane="random" />
    <vehicle id="E15_to_E10_196" type="standard_car" route="E15_to_E10" depart="562.0" departLane="random" />
    <vehicle id="E9_to_E12_197" type="standard_car" route="E9_to_E12" depart="562.0" departLane="random" />
    <vehicle id="E15_to_E10_198" type="standard_car" route="E15_to_E10" depart="566.0" departLane="random" />
    <vehicles id="E9_to_E6_199" type="standard_car" route="E9_to_E6" depart="567.0" departLane="random" />
    <vehicles id="E5_to_E10_200" type="standard_car" route="E5_to_E10" depart="575.0" departLane="random" />
    <vehicles id="E9_to_E6_201" type="standard_car" route="E9_to_E6" depart="579.0" departLane="random" />
    <vehicle id="-E10_to_E6_202" type="standard_car" route="-E10_to_E6" depart="580.0" departLane="random" />
    <vehicle id="E5_to_E6_203" type="standard_car" route="E5_to_E6" depart="581.0" departLane="random" />
    <vehicles id="E9_to_E6_204" type="standard_car" route="E9_to_E6" depart="582.0" departLane="random" />
    <vehicles id="E9_to_E6_205" type="standard_car" route="E9_to_E6" depart="582.0" departLane="random" />
    <vehicles id="E5_to_E10_206" type="standard_car" route="E5_to_E10" depart="583.0" departLane="random" />
    <vehicles id="E9_to_E6_207" type="standard_car" route="E9_to_E6" depart="585.0" departLane="random" />
    <vehicle id="-E10_to_E6_208" type="standard_car" route="-E10_to_E6" depart="586.0" departLane="random" />
    <vehicles id="E9_to_E6_209" type="standard_car" route="E9_to_E6" depart="588.0" departLane="random" />
    <vehicle id="E5_to_E6_210" type="standard_car" route="E5_to_E6" depart="589.0" departLane="random" />
    <vehicles id="E9_to_E6_211" type="standard_car" route="E9_to_E6" depart="591.0" departLane="random" />
    <vehicles id="E5_to_E10_212" type="standard_car" route="E5_to_E10" depart="591.0" departLane="random" />
    <vehicle id="E5_to_-E9_213" type="standard_car" route="E5_to_-E9" depart="593.0" departLane="random" />
    <vehicles id="E9_to_E6_214" type="standard_car" route="E9_to_E6" depart="593.0" departLane="random" />
    <vehicles id="E5_to_E10_215" type="standard_car" route="E5_to_E10" depart="593.0" departLane="random" />
    <vehicles id="E5_to_E10_216" type="standard_car" route="E5_to_E10" depart="595.0" departLane="random" />
    <vehicles id="E9_to_E6_217" type="standard_car" route="E9_to_E6" depart="598.0" departLane="random" />
    <vehicle id="-E10_to_-E9_218" type="standard_car" route="-E10_to_-E9" depart="600.0" departLane="random" />
    <vehicles id="E9_to_E6_219" type="standard_car" route="E9_to_E6" depart="600.0" departLane="random" />
    <vehicles id="E9_to_E6_220" type="standard_car" route="E9_to_E6" depart="603.0" departLane="random" />
    <vehicle id="E5_to_-E9_221" type="standard_car" route="E5_to_-E9" depart="603.0" departLane="random" />
    <vehicles id="E5_to_E10_222" type="standard_car" route="E5_to_E10" depart="604.0" departLane="random" />
    <vehicle id="E15_to_-E9_223" type="standard_car" route="E15_to_-E9" depart="605.0" departLane="random" />
    <vehicles id="E9_to_E6_224" type="standard_car" route="E9_to_E6" depart="609.0" departLane="random" />
    <vehicles id="E5_to_E10_225" type="standard_car" route="E5_to_E10" depart="610.0" departLane="random" />
    <vehicles id="E9_to_E6_226" type="standard_car" route="E9_to_E6" depart="610.0" departLane="random" />
    <vehicle id="-E10_to_E12_227" type="standard_car" route="-E10_to_E12" depart="611.0" departLane="random" />
    <vehicles id="E9_to_E6_228" type="standard_car" route="E9_to_E6" depart="613.0" departLane="random" />
    <vehicles id="E9_to_E6_229" type="standard_car" route="E9_to_E6" depart="616.0" departLane="random" />
    <vehicles id="E5_to_E10_230" type="standard_car" route="E5_to_E10" depart="617.0" departLane="random" />
    <vehicles id="E5_to_E10_231" type="standard_car" route="E5_to_E10" depart="617.0" departLane="random" />
    <vehicle id="-E10_to_E12_232" type="standard_car" route="-E10_to_E12" depart="618.0" departLane="random" />
    <vehicles id="E9_to_E6_233" type="standard_car" route="E9_to_E6" depart="619.0" departLane="random" />
    <vehicles id="E5_to_E10_234" type="standard_car" route="E5_to_E10" depart="625.0" departLane="random" />
    <vehicles id="E9_to_E6_235" type="standard_car" route="E9_to_E6" depart="625.0" departLane="random" />
    <vehicles id="E9_to_E6_236" type="standard_car" route="E9_to_E6" depart="625.0" departLane="random" />
    <vehicles id="E9_to_E6_237" type="standard_car" route="E9_to_E6" depart="626.0" departLane="random" />
    <vehicles id="E9_to_E6_238" type="standard_car" route="E9_to_E6" depart="629.0" departLane="random" />
    <vehicles id="E5_to_E10_239" type="standard_car" route="E5_to_E10" depart="630.0" departLane="random" />
    <vehicle id="-E10_to_-E9_240" type="standard_car" route="-E10_to_-E9" depart="631.0" departLane="random" />
    <vehicle id="E15_to_E10_241" type="standard_car" route="E15_to_E10" depart="631.0" departLane="random" />
    <vehicle id="-E10_to_E6_242" type="standard_car" route="-E10_to_E6" depart="632.0" departLane="random" />
    <vehicles id="E9_to_E6_243" type="standard_car" route="E9_to_E6" depart="632.0" departLane="random" />
    <vehicle id="E9_to_E12_244" type="standard_car" route="E9_to_E12" depart="635.0" departLane="random" />
    <vehicles id="E9_to_E6_245" type="standard_car" route="E9_to_E6" depart="636.0" departLane="random" />
    <vehicle id="E5_to_E6_246" type="standard_car" route="E5_to_E6" depart="637.0" departLane="random" />
    <vehicles id="E5_to_E10_247" type="standard_car" route="E5_to_E10" depart="638.0" departLane="random" />
    <vehicles id="E9_to_E6_248" type="standard_car" route="E9_to_E6" depart="638.0" departLane="random" />
    <vehicles id="E9_to_E6_249" type="standard_car" route="E9_to_E6" depart="640.0" departLane="random" />
    <vehicle id="-E10_to_-E9_250" type="standard_car" route="-E10_to_-E9" depart="640.0" departLane="random" />
    <vehicles id="E9_to_E6_251" type="standard_car" route="E9_to_E6" depart="641.0" departLane="random" />
    <vehicles id="E5_to_E10_252" type="standard_car" route="E5_to_E10" depart="642.0" departLane="random" />
    <vehicle id="-E10_to_E6_253" type="standard_car" route="-E10_to_E6" depart="643.0" departLane="random" />
    <vehicles id="E9_to_E6_254" type="standard_car" route="E9_to_E6" depart="644.0" departLane="random" />
    <vehicle id="E15_to_-E9_255" type="standard_car" route="E15_to_-E9" depart="647.0" departLane="random" />
    <vehicles id="E9_to_E6_256" type="standard_car" route="E9_to_E6" depart="648.0" departLane="random" />
    <vehicle id="E9_to_E12_257" type="standard_car" route="E9_to_E12" depart="649.0" departLane="random" />
    <vehicles id="E5_to_E10_258" type="standard_car" route="E5_to_E10" depart="649.0" departLane="random" />
    <vehicle id="E5_to_E6_259" type="standard_car" route="E5_to_E6" depart="649.0" departLane="random" />
    <vehicles id="E5_to_E10_260" type="standard_car" route="E5_to_E10" depart="650.0" departLane="random" />
    <vehicles id="E9_to_E6_261" type="standard_car" route="E9_to_E6" depart="654.0" departLane="random" />
    <vehicles id="E5_to_E10_262" type="standard_car" route="E5_to_E10" depart="657.0" departLane="random" />
    <vehicle id="-E10_to_-E9_263" type="standard_car" route="-E10_to_-E9" depart="658.0" departLane="random" />
    <vehicles id="E9_to_E6_264" type="standard_car" route="E9_to_E6" depart="660.0" departLane="random" />
    <vehicles id="E5_to_E10_265" type="standard_car" route="E5_to_E10" depart="662.0" departLane="random" />
    <vehicle id="E5_to_E6_266" type="standard_car" route="E5_to_E6" depart="663.0" departLane="random" />
    <vehicles id="E5_to_E10_267" type="standard_car" route="E5_to_E10" depart="665.0" departLane="random" />
    <vehicles id="E5_to_E10_268" type="standard_car" route="E5_to_E10" depart="666.0" departLane="random" />
    <vehicle id="-E10_to_-E9_269" type="standard_car" route="-E10_to_-E9" depart="666.0" departLane="random" />
    <vehicle id="E5_to_-E9_270" type="standard_car" route="E5_to_-E9" depart="669.0" departLane="random" />