<?xml version="1.0" encoding="UTF-8"?>

<!-- generated on 2022-06-05 11:03:30 by Eclipse SUMO netedit Version 1.10.0
<configuration xmlns:xsi="http://www.w3.org/2001/XMLSchema-instance" xsi:noNamespaceSchemaLocation="http://sumo.dlr.de/xsd/netconvertConfiguration.xsd">

    <input>
        <sumo-net-file value="MIA.net.xml"/>
    </input>

    <output>
        <output-file value="MIA.net.xml"/>
    </output>

    <processing>
        <geometry.min-radius.fix.railways value="false"/>
        <geometry.max-grade.fix value="false"/>
        <offset.disable-normalization value="true"/>
        <lefthand value="false"/>
    </processing>

    <junctions>
        <no-turnarounds value="true"/>
        <junctions.corner-detail value="5"/>
        <junctions.limit-turn-speed value="5.5"/>
        <rectangular-lane-cut value="false"/>
    </junctions>

    <pedestrian>
        <walkingareas value="false"/>
    </pedestrian>

    <report>
        <aggregate-warnings value="5"/>
    </report>

</configuration>
-->

<net version="1.9" junctionCornerDetail="5" limitTurnSpeed="5.50" xmlns:xsi="http://www.w3.org/2001/XMLSchema-instance" xsi:noNamespaceSchemaLocation="http://sumo.dlr.de/xsd/net_file.xsd">

    <location netOffset="0.00,0.00" convBoundary="-4400.00,-2400.00,4500.00,40800.00" origBoundary="-10000000000.00,-10000000000.00,10000000000.00,10000000000.00" projParameter="!"/>

    <edge id=":J12_0" function="internal">
        <lane id=":J12_0_0" index="0" speed="7.11" length="4.41" shape="-74.46,-1359.77 -75.18,-1358.90 -75.69,-1357.95 -76.00,-1356.92 -76.10,-1355.80"/>
        <lane id=":J12_0_1" index="1" speed="8.77" length="6.93" shape="-76.72,-1362.03 -77.85,-1360.67 -78.66,-1359.18 -79.14,-1357.56 -79.30,-1355.80"/>
        <lane id=":J12_0_2" index="2" speed="10.16" length="9.45" shape="-78.98,-1364.30 -80.52,-1362.44 -81.62,-1360.41 -82.28,-1358.19 -82.50,-1355.79"/>
        <lane id=":J12_0_3" index="3" speed="11.39" length="11.96" shape="-81.24,-1366.56 -83.20,-1364.22 -84.59,-1361.64 -85.43,-1358.83 -85.70,-1355.79"/>
    </edge>
    <edge id=":J12_4" function="internal">
        <lane id=":J12_4_0" index="0" speed="15.28" length="8.69" shape="-88.87,-1364.46 -88.90,-1355.79"/>
        <lane id=":J12_4_1" index="1" speed="15.28" length="8.69" shape="-92.07,-1364.47 -92.10,-1355.79"/>
        <lane id=":J12_4_2" index="2" speed="15.28" length="8.69" shape="-95.27,-1364.48 -95.30,-1355.79"/>
        <lane id=":J12_4_3" index="3" speed="15.28" length="8.69" shape="-98.47,-1364.48 -98.50,-1355.78"/>
    </edge>
    <edge id=":J13_0" function="internal">
        <lane id=":J13_0_0" index="0" speed="11.89" length="13.01" shape="-39.84,-1392.00 -43.37,-1391.44 -45.44,-1389.89 -47.16,-1387.52 -49.67,-1384.50"/>
    </edge>
    <edge id=":J13_1" function="internal">
        <lane id=":J13_1_0" index="0" speed="16.67" length="18.22" shape="-39.84,-1395.20 -58.07,-1395.20"/>
        <lane id=":J13_1_1" index="1" speed="16.67" length="18.22" shape="-39.84,-1398.40 -58.07,-1398.40"/>
    </edge>
    <edge id=":J4_0" function="internal">
        <lane id=":J4_0_0" index="0" speed="16.67" length="10.17" shape="-114.40,-1196.00 -115.40,-1198.69 -117.60,-1200.01 -119.80,-1201.32 -120.80,-1204.02"/>
        <lane id=":J4_0_1" index="1" speed="16.67" length="10.17" shape="-111.20,-1196.00 -112.20,-1198.69 -114.40,-1200.01 -116.60,-1201.32 -117.60,-1204.02"/>
        <lane id=":J4_0_2" index="2" speed="16.67" length="10.17" shape="-108.00,-1196.00 -109.00,-1198.69 -111.20,-1200.01 -113.40,-1201.32 -114.40,-1204.02"/>
        <lane id=":J4_0_3" index="3" speed="16.67" length="10.17" shape="-104.80,-1196.00 -105.80,-1198.69 -108.00,-1200.01 -110.20,-1201.32 -111.20,-1204.02"/>
        <lane id=":J4_0_4" index="4" speed="16.67" length="10.17" shape="-101.60,-1196.00 -102.60,-1198.69 -104.80,-1200.01 -107.00,-1201.32 -108.00,-1204.02"/>
        <lane id=":J4_0_5" index="5" speed="16.67" length="10.17" shape="-101.60,-1196.00 -102.10,-1198.47 -103.20,-1200.01 -104.30,-1201.55 -104.80,-1204.02"/>
        <lane id=":J4_0_6" index="6" speed="16.67" length="10.17" shape="-101.60,-1196.00 -101.60,-1204.02"/>
    </edge>
    <edge id=":J4_7" function="internal">
        <lane id=":J4_7_0" index="0" speed="16.67" length="8.82" shape="-76.00,-1204.02 -76.50,-1201.55 -77.60,-1200.01 -78.70,-1198.47 -79.20,-1196.00"/>
        <lane id=":J4_7_1" index="1" speed="16.67" length="8.82" shape="-79.20,-1204.02 -79.70,-1201.55 -80.80,-1200.01 -81.90,-1198.47 -82.40,-1196.00"/>
        <lane id=":J4_7_2" index="2" speed="16.67" length="8.82" shape="-82.40,-1204.02 -82.90,-1201.55 -84.00,-1200.01 -85.10,-1198.47 -85.60,-1196.00"/>
        <lane id=":J4_7_3" index="3" speed="16.67" length="8.82" shape="-85.60,-1204.02 -86.10,-1201.55 -87.20,-1200.01 -88.30,-1198.47 -88.80,-1196.00"/>
        <lane id=":J4_7_4" index="4" speed="16.67" length="8.82" shape="-88.80,-1204.02 -89.30,-1201.55 -90.40,-1200.01 -91.50,-1198.47 -92.00,-1196.00"/>
        <lane id=":J4_7_5" index="5" speed="16.67" length="8.82" shape="-92.00,-1204.02 -92.50,-1201.55 -93.60,-1200.01 -94.70,-1198.47 -95.20,-1196.00"/>
        <lane id=":J4_7_6" index="6" speed="16.67" length="8.82" shape="-95.20,-1204.02 -95.70,-1201.55 -96.80,-1200.01 -97.90,-1198.47 -98.40,-1196.00"/>
    </edge>
    <edge id=":MIA_0" function="internal">
        <lane id=":MIA_0_0" index="0" speed="6.51" length="9.03" shape="-120.80,-1383.20 -121.15,-1385.65 -122.20,-1387.40 -123.95,-1388.45 -126.40,-1388.80"/>
    </edge>
    <edge id=":MIA_1" function="internal">
        <lane id=":MIA_1_0" index="0" speed="16.67" length="37.55" shape="-117.60,-1383.19 -116.60,-1394.20 -114.40,-1401.60 -112.20,-1408.99 -111.20,-1420.00"/>
        <lane id=":MIA_1_1" index="1" speed="16.67" length="37.55" shape="-114.40,-1383.18 -113.40,-1394.19 -111.20,-1401.59 -109.00,-1408.99 -108.00,-1420.00"/>
        <lane id=":MIA_1_2" index="2" speed="16.67" length="37.55" shape="-111.20,-1383.18 -110.20,-1394.19 -108.00,-1401.59 -105.80,-1408.99 -104.80,-1420.00"/>
        <lane id=":MIA_1_3" index="3" speed="16.67" length="37.55" shape="-108.00,-1383.17 -107.00,-1394.18 -104.80,-1401.59 -102.60,-1408.99 -101.60,-1420.00"/>
    </edge>
    <edge id=":MIA_5" function="internal">
        <lane id=":MIA_5_0" index="0" speed="12.72" length="37.48" shape="-104.80,-1383.16 -103.25,-1392.63 -98.60,-1399.39 -90.85,-1403.45 -80.00,-1404.80"/>
        <lane id=":MIA_5_1" index="1" speed="11.84" length="32.33" shape="-101.60,-1383.16 -100.25,-1391.23 -96.20,-1396.99 -89.45,-1400.45 -80.00,-1401.60"/>
    </edge>
    <edge id=":MIA_7" function="internal">
        <lane id=":MIA_7_0" index="0" speed="16.67" length="46.58" shape="-80.00,-1395.20 -88.66,-1394.20 -99.45,-1392.00 -112.12,-1389.80 -126.40,-1388.80"/>
        <lane id=":MIA_7_1" index="1" speed="16.67" length="46.58" shape="-80.00,-1395.20 -126.40,-1392.00"/>
        <lane id=":MIA_7_2" index="2" speed="16.67" length="46.58" shape="-80.00,-1398.40 -126.40,-1395.20"/>
        <lane id=":MIA_7_3" index="3" speed="16.67" length="46.58" shape="-80.00,-1398.40 -126.40,-1398.40"/>
    </edge>
    <edge id=":MIA_11" function="internal">
        <lane id=":MIA_11_0" index="0" speed="12.72" length="37.45" shape="-80.00,-1398.40 -90.85,-1399.75 -98.60,-1403.80 -103.25,-1410.55 -104.80,-1420.00"/>
        <lane id=":MIA_11_1" index="1" speed="12.28" length="34.84" shape="-80.00,-1398.40 -89.45,-1399.75 -96.20,-1403.80 -100.25,-1410.55 -101.60,-1420.00"/>
    </edge>
    <edge id=":MIA_13" function="internal">
        <lane id=":MIA_13_0" index="0" speed="7.33" length="11.73" shape="-85.60,-1420.00 -85.25,-1416.15 -84.20,-1413.40 -82.45,-1411.75 -80.00,-1411.20"/>
    </edge>
    <edge id=":MIA_14" function="internal">
        <lane id=":MIA_14_0" index="0" speed="15.28" length="37.00" shape="-88.80,-1420.00 -88.83,-1383.13"/>
        <lane id=":MIA_14_1" index="1" speed="15.28" length="37.00" shape="-88.80,-1420.00 -89.30,-1409.04 -90.40,-1401.57 -91.51,-1394.10 -92.03,-1383.14"/>
        <lane id=":MIA_14_2" index="2" speed="15.28" length="37.00" shape="-92.00,-1420.00 -92.50,-1409.04 -93.60,-1401.57 -94.71,-1394.11 -95.23,-1383.15"/>
        <lane id=":MIA_14_3" index="3" speed="15.28" length="37.00" shape="-95.20,-1420.00 -95.70,-1409.04 -96.80,-1401.58 -97.91,-1394.11 -98.43,-1383.15"/>
    </edge>
    <edge id=":MIA_18" function="internal">
        <lane id=":MIA_18_0" index="0" speed="13.54" length="42.61" shape="-98.40,-1420.00 -100.15,-1409.15 -105.40,-1401.40 -114.15,-1396.75 -126.40,-1395.20"/>
        <lane id=":MIA_18_1" index="1" speed="13.15" length="40.13" shape="-98.40,-1420.00 -100.15,-1410.55 -105.40,-1403.80 -114.15,-1399.75 -126.40,-1398.40"/>
    </edge>
    <edge id=":MIA_20" function="internal">
        <lane id=":MIA_20_0" index="0" speed="8.83" length="17.50" shape="-126.40,-1414.40 -119.75,-1414.75 -115.00,-1415.80 -112.15,-1417.55 -111.20,-1420.00"/>
    </edge>
    <edge id=":MIA_21" function="internal">
        <lane id=":MIA_21_0" index="0" speed="16.67" length="46.51" shape="-126.40,-1411.20 -80.00,-1408.00"/>
        <lane id=":MIA_21_1" index="1" speed="16.67" length="46.51" shape="-126.40,-1408.00 -80.00,-1404.80"/>
        <lane id=":MIA_21_2" index="2" speed="16.67" length="46.51" shape="-126.40,-1404.80 -80.00,-1401.60"/>
    </edge>
    <edge id=":MIA_24" function="internal">
        <lane id=":MIA_24_0" index="0" speed="13.21" length="40.55" shape="-126.40,-1401.60 -112.75,-1400.45 -103.01,-1396.99 -97.17,-1391.22 -95.23,-1383.15"/>
        <lane id=":MIA_24_1" index="1" speed="12.76" length="37.75" shape="-126.40,-1401.60 -114.15,-1400.45 -105.41,-1396.99 -100.17,-1391.22 -98.43,-1383.15"/>
    </edge>

    <edge id="-E10" from="J11" to="MIA" priority="-1" length="1000.00">
        <lane id="-E10_0" index="0" speed="16.67" length="1000.00" shape="-85.60,-2400.00 -85.60,-1420.00"/>
        <lane id="-E10_1" index="1" speed="16.67" length="1000.00" shape="-88.80,-2400.00 -88.80,-1420.00"/>
        <lane id="-E10_2" index="2" speed="16.67" length="1000.00" shape="-92.00,-2400.00 -92.00,-1420.00"/>
        <lane id="-E10_3" index="3" speed="16.67" length="1000.00" shape="-95.20,-2400.00 -95.20,-1420.00"/>
        <lane id="-E10_4" index="4" speed="16.67" length="1000.00" shape="-98.40,-2400.00 -98.40,-1420.00"/>
    </edge>
    <edge id="-E3" from="J4" to="J0" priority="-1">
        <lane id="-E3_0" index="0" speed="16.67" length="796.00" shape="-79.20,-1196.00 -79.20,-400.00"/>
        <lane id="-E3_1" index="1" speed="16.67" length="796.00" shape="-82.40,-1196.00 -82.40,-400.00"/>
        <lane id="-E3_2" index="2" speed="16.67" length="796.00" shape="-85.60,-1196.00 -85.60,-400.00"/>
        <lane id="-E3_3" index="3" speed="16.67" length="796.00" shape="-88.80,-1196.00 -88.80,-400.00"/>
        <lane id="-E3_4" index="4" speed="16.67" length="796.00" shape="-92.00,-1196.00 -92.00,-400.00"/>
        <lane id="-E3_5" index="5" speed="16.67" length="796.00" shape="-95.20,-1196.00 -95.20,-400.00"/>
        <lane id="-E3_6" index="6" speed="16.67" length="796.00" shape="-98.40,-1196.00 -98.40,-400.00"/>
    </edge>
    <edge id="-E9" from="MIA" to="J10" priority="-1" length="1000.00">
        <lane id="-E9_0" index="0" speed="16.67" length="1000.00" shape="-126.40,-1388.80 -1100.00,-1388.80"/>
        <lane id="-E9_1" index="1" speed="16.67" length="1000.00" shape="-126.40,-1392.00 -1100.00,-1392.00"/>
        <lane id="-E9_2" index="2" speed="16.67" length="1000.00" shape="-126.40,-1395.20 -1100.00,-1395.20"/>
        <lane id="-E9_3" index="3" speed="16.67" length="1000.00" shape="-126.40,-1398.40 -1100.00,-1398.40"/>
    </edge>
    <edge id="E10" from="MIA" to="J11" priority="-1" length="1000.00">
        <lane id="E10_0" index="0" speed="16.67" length="1000.00" shape="-111.20,-1420.00 -111.20,-2400.00"/>
        <lane id="E10_1" index="1" speed="16.67" length="1000.00" shape="-108.00,-1420.00 -108.00,-2400.00"/>
        <lane id="E10_2" index="2" speed="16.67" length="1000.00" shape="-104.80,-1420.00 -104.80,-2400.00"/>
        <lane id="E10_3" index="3" speed="16.67" length="1000.00" shape="-101.60,-1420.00 -101.60,-2400.00"/>
    </edge>
    <edge id="E12" from="MIA" to="J12" priority="-1">
        <lane id="E12_0" index="0" speed="13.89" length="18.67" shape="-88.83,-1383.13 -88.87,-1364.46"/>
        <lane id="E12_1" index="1" speed="13.89" length="18.67" shape="-92.03,-1383.14 -92.07,-1364.47"/>
        <lane id="E12_2" index="2" speed="13.89" length="18.67" shape="-95.23,-1383.15 -95.27,-1364.48"/>
        <lane id="E12_3" index="3" speed="13.89" length="18.67" shape="-98.43,-1383.15 -98.47,-1364.48"/>
    </edge>
    <edge id="E13" from="J12" to="J4" priority="-1" length="300.00">
        <lane id="E13_0" index="0" speed="16.67" length="300.00" shape="-76.10,-1355.80 -76.00,-1204.02"/>
        <lane id="E13_1" index="1" speed="16.67" length="300.00" shape="-79.30,-1355.80 -79.20,-1204.02"/>
        <lane id="E13_2" index="2" speed="16.67" length="300.00" shape="-82.50,-1355.79 -82.40,-1204.02"/>
        <lane id="E13_3" index="3" speed="16.67" length="300.00" shape="-85.70,-1355.79 -85.60,-1204.02"/>
        <lane id="E13_4" index="4" speed="16.67" length="300.00" shape="-88.90,-1355.79 -88.80,-1204.02"/>
        <lane id="E13_5" index="5" speed="16.67" length="300.00" shape="-92.10,-1355.79 -92.00,-1204.02"/>
        <lane id="E13_6" index="6" speed="16.67" length="300.00" shape="-95.30,-1355.79 -95.20,-1204.02"/>
        <lane id="E13_7" index="7" speed="16.67" length="300.00" shape="-98.50,-1355.78 -98.40,-1204.02"/>
    </edge>
    <edge id="E14" from="J8" to="J13" priority="-1" length="800.00">
        <lane id="E14_0" index="0" speed="16.67" length="800.00" shape="900.00,-1392.00 -39.84,-1392.00"/>
        <lane id="E14_1" index="1" speed="16.67" length="800.00" shape="900.00,-1395.20 -39.84,-1395.20"/>
        <lane id="E14_2" index="2" speed="16.67" length="800.00" shape="900.00,-1398.40 -39.84,-1398.40"/>
    </edge>
    <edge id="E15" from="J13" to="MIA" priority="-1" length="50.00">
        <lane id="E15_0" index="0" speed="16.67" length="50.00" shape="-58.07,-1395.20 -80.00,-1395.20"/>
        <lane id="E15_1" index="1" speed="16.67" length="50.00" shape="-58.07,-1398.40 -80.00,-1398.40"/>
    </edge>
    <edge id="E16" from="J13" to="J12" priority="-1" length="100.00">
        <lane id="E16_0" index="0" speed="16.67" length="100.00" shape="-49.67,-1384.50 -74.46,-1359.77"/>
        <lane id="E16_1" index="1" speed="16.67" length="100.00" shape="-51.93,-1386.77 -76.72,-1362.03"/>
        <lane id="E16_2" index="2" speed="16.67" length="100.00" shape="-54.19,-1389.03 -78.98,-1364.30"/>
        <lane id="E16_3" index="3" speed="16.67" length="100.00" shape="-56.45,-1391.30 -81.24,-1366.56"/>
    </edge>
    <edge id="E3" from="J0" to="J4" priority="-1">
        <lane id="E3_0" index="0" speed="16.67" length="796.00" shape="-114.40,-400.00 -114.40,-1196.00"/>
        <lane id="E3_1" index="1" speed="16.67" length="796.00" shape="-111.20,-400.00 -111.20,-1196.00"/>
        <lane id="E3_2" index="2" speed="16.67" length="796.00" shape="-108.00,-400.00 -108.00,-1196.00"/>
        <lane id="E3_3" index="3" speed="16.67" length="796.00" shape="-104.80,-400.00 -104.80,-1196.00"/>
        <lane id="E3_4" index="4" speed="16.67" length="796.00" shape="-101.60,-400.00 -101.60,-1196.00"/>
    </edge>
    <edge id="E5" from="J4" to="MIA" priority="-1" length="300.00">
        <lane id="E5_0" index="0" speed="16.67" length="300.00" shape="-120.80,-1204.02 -120.80,-1383.20"/>
        <lane id="E5_1" index="1" speed="16.67" length="300.00" shape="-117.60,-1204.02 -117.60,-1383.19"/>
        <lane id="E5_2" index="2" speed="16.67" length="300.00" shape="-114.40,-1204.02 -114.40,-1383.18"/>
        <lane id="E5_3" index="3" speed="16.67" length="300.00" shape="-111.20,-1204.02 -111.20,-1383.18"/>
        <lane id="E5_4" index="4" speed="16.67" length="300.00" shape="-108.00,-1204.02 -108.00,-1383.17"/>
        <lane id="E5_5" index="5" speed="16.67" length="300.00" shape="-104.80,-1204.02 -104.80,-1383.16"/>
        <lane id="E5_6" index="6" speed="16.67" length="300.00" shape="-101.60,-1204.02 -101.60,-1383.16"/>
    </edge>
    <edge id="E6" from="MIA" to="J8" priority="-1" length="1000.00">
        <lane id="E6_0" index="0" speed="16.67" length="1000.00" shape="-80.00,-1411.20 900.00,-1411.20"/>
        <lane id="E6_1" index="1" speed="16.67" length="1000.00" shape="-80.00,-1408.00 900.00,-1408.00"/>
        <lane id="E6_2" index="2" speed="16.67" length="1000.00" shape="-80.00,-1404.80 900.00,-1404.80"/>
        <lane id="E6_3" index="3" speed="16.67" length="1000.00" shape="-80.00,-1401.60 900.00,-1401.60"/>
    </edge>
    <edge id="E9" from="J10" to="MIA" priority="-1" length="1000.00">
        <lane id="E9_0" index="0" speed="16.67" length="1000.00" shape="-1100.00,-1414.40 -126.40,-1414.40"/>
        <lane id="E9_1" index="1" speed="16.67" length="1000.00" shape="-1100.00,-1411.20 -126.40,-1411.20"/>
        <lane id="E9_2" index="2" speed="16.67" length="1000.00" shape="-1100.00,-1408.00 -126.40,-1408.00"/>
        <lane id="E9_3" index="3" speed="16.67" length="1000.00" shape="-1100.00,-1404.80 -126.40,-1404.80"/>
        <lane id="E9_4" index="4" speed="16.67" length="1000.00" shape="-1100.00,-1401.60 -126.40,-1401.60"/>
    </edge>

    <tlLogic id="MIA" type="static" programID="0" offset="0">
        <phase duration="10" state="GGGGGrrrrrrrrGGGGGrrrrrrrr"/>
        <phase duration="5"  state="yyyyyrrrrrrrrGGGGGrrrrrrrr"/>
        <phase duration="10" state="rrrrrrrrrrrrrGGGGGGGGrrrrr"/>
        <phase duration="5"  state="rrrrrrrrrrrrryyyyyyyGrrrrr"/>
        <phase duration="10" state="GrrrrrrrrrrrrrrrrrrrGGGGGG"/>
        <phase duration="5"  state="yrrrrrrrrrrrrrrrrrrryyyyyy"/>
        <phase duration="10" state="rrrrrrrGGGGGGGrrrrrrrrrrrr"/>
        <phase duration="5"  state="rrrrrrryyyyyyyrrrrrrrrrrrr"/>
        <phase duration="10" state="GGGGGGGrrrrrrrrrrrrrrrrrrr"/>
        <phase duration="5"  state="GGGGGyyrrrrrrrrrrrrrrrrrrr"/>
    </tlLogic>

    <junction id="J0" type="dead_end" x="-100.00" y="-400.00" incLanes="-E3_0 -E3_1 -E3_2 -E3_3 -E3_4 -E3_5 -E3_6" intLanes="" shape="-100.00,-400.00 -77.60,-400.00 -100.00,-400.00"/>
    <junction id="J10" type="dead_end" x="-1100.00" y="-1400.00" incLanes="-E9_0 -E9_1 -E9_2 -E9_3" intLanes="" shape="-1100.00,-1400.00 -1100.00,-1387.20 -1100.00,-1400.00"/>
    <junction id="J11" type="dead_end" x="-100.00" y="-2400.00" incLanes="E10_0 E10_1 E10_2 E10_3" intLanes="" shape="-100.00,-2400.00 -112.80,-2400.00 -100.00,-2400.00"/>
    <junction id="J12" type="priority" x="-100.10" y="-1350.00" incLanes="E16_0 E16_1 E16_2 E16_3 E12_0 E12_1 E12_2 E12_3" intLanes=":J12_0_0 :J12_0_1 :J12_0_2 :J12_0_3 :J12_4_0 :J12_4_1 :J12_4_2 :J12_4_3" shape="-100.10,-1355.78 -74.50,-1355.80 -74.37,-1356.85 -74.21,-1357.34 -73.98,-1357.80 -73.69,-1358.23 -73.33,-1358.63 -82.37,-1367.69 -83.87,-1366.24 -85.09,-1365.16 -86.05,-1364.44 -86.73,-1364.08 -87.14,-1364.09 -87.27,-1364.46 -100.07,-1364.49">
        <request index="0" response="00000000" foes="00000000" cont="0"/>
        <request index="1" response="00000000" foes="00000000" cont="0"/>
        <request index="2" response="00000000" foes="00000000" cont="0"/>
        <request index="3" response="00000000" foes="00000000" cont="0"/>
        <request index="4" response="00000000" foes="00000000" cont="0"/>
        <request index="5" response="00000000" foes="00000000" cont="0"/>
        <request index="6" response="00000000" foes="00000000" cont="0"/>
        <request index="7" response="00000000" foes="00000000" cont="0"/>
    </junction>
    <junction id="J13" type="priority" x="-50.00" y="-1400.00" incLanes="E14_0 E14_1 E14_2" intLanes=":J13_0_0 :J13_1_0 :J13_1_1" shape="-39.84,-1390.40 -39.84,-1400.00 -58.07,-1400.00 -58.07,-1393.60 -57.28,-1393.47 -57.12,-1393.31 -57.12,-1393.08 -57.27,-1392.79 -57.58,-1392.43 -48.54,-1383.37 -46.91,-1385.26 -45.77,-1386.95 -44.81,-1388.37 -43.71,-1389.46 -42.16,-1390.15">
        <request index="0" response="000" foes="000" cont="0"/>
        <request index="1" response="000" foes="000" cont="0"/>
        <request index="2" response="000" foes="000" cont="0"/>
    </junction>
    <junction id="J14" type="dead_end" x="4500.00" y="32000.00" incLanes="" intLanes="" shape="4500.00,32000.00"/>
    <junction id="J16" type="dead_end" x="3000.00" y="2500.00" incLanes="" intLanes="" shape="3000.00,2500.00"/>
    <junction id="J17" type="dead_end" x="-3100.00" y="2500.00" incLanes="" intLanes="" shape="-3100.00,2500.00"/>
    <junction id="J21" type="dead_end" x="3200.00" y="6900.00" incLanes="" intLanes="" shape="3200.00,6900.00"/>
    <junction id="J22" type="dead_end" x="-3100.00" y="6900.00" incLanes="" intLanes="" shape="-3100.00,6900.00"/>
    <junction id="J26" type="dead_end" x="-3900.00" y="10200.00" incLanes="" intLanes="" shape="-3900.00,10200.00"/>
    <junction id="J27" type="dead_end" x="-100.00" y="13300.00" incLanes="" intLanes="" shape="-100.00,13300.00"/>
    <junction id="J28" type="dead_end" x="4300.00" y="38000.00" incLanes="" intLanes="" shape="4300.00,38000.00"/>
    <junction id="J29" type="dead_end" x="-100.00" y="11700.00" incLanes="" intLanes="" shape="-100.00,11700.00"/>
    <junction id="J32" type="dead_end" x="3000.00" y="10200.00" incLanes="" intLanes="" shape="3000.00,10200.00"/>
    <junction id="J34" type="dead_end" x="0.00" y="11700.00" incLanes="" intLanes="" shape="0.00,11700.00"/>
    <junction id="J36" type="dead_end" x="3000.00" y="24200.00" incLanes="" intLanes="" shape="3000.00,24200.00"/>
    <junction id="J37" type="dead_end" x="-3400.00" y="24200.00" incLanes="" intLanes="" shape="-3400.00,24200.00"/>
    <junction id="J38" type="dead_end" x="-100.00" y="28600.00" incLanes="" intLanes="" shape="-100.00,28600.00"/>
    <junction id="J39" type="dead_end" x="-100.00" y="40800.00" incLanes="" intLanes="" shape="-100.00,40800.00"/>
    <junction id="J4" type="priority" x="-100.00" y="-1200.00" incLanes="E3_0 E3_1 E3_2 E3_3 E3_4 E13_0 E13_1 E13_2 E13_3 E13_4 E13_5 E13_6 E13_7" intLanes=":J4_0_0 :J4_0_1 :J4_0_2 :J4_0_3 :J4_0_4 :J4_0_5 :J4_0_6 :J4_7_0 :J4_7_1 :J4_7_2 :J4_7_3 :J4_7_4 :J4_7_5 :J4_7_6" shape="-116.00,-1196.00 -77.60,-1196.00 -76.77,-1199.04 -75.23,-1200.98 -74.64,-1202.22 -74.40,-1204.02 -122.40,-1204.02 -121.93,-1202.00 -120.74,-1200.80 -117.66,-1199.22 -116.47,-1198.02">
        <request index="0"  response="00000000000000" foes="00000000000000" cont="0"/>
        <request index="1"  response="00000000000000" foes="00000000000000" cont="0"/>
        <request index="2"  response="00000000000000" foes="00000000000000" cont="0"/>
        <request index="3"  response="00000000000000" foes="00000000000000" cont="0"/>
        <request index="4"  response="00000000000000" foes="00000000000000" cont="0"/>
        <request index="5"  response="00000000000000" foes="00000000000000" cont="0"/>
        <request index="6"  response="00000000000000" foes="00000000000000" cont="0"/>
        <request index="7"  response="00000000000000" foes="00000000000000" cont="0"/>
        <request index="8"  response="00000000000000" foes="00000000000000" cont="0"/>
        <request index="9"  response="00000000000000" foes="00000000000000" cont="0"/>
        <request index="10" response="00000000000000" foes="00000000000000" cont="0"/>
        <request index="11" response="00000000000000" foes="00000000000000" cont="0"/>
        <request index="12" response="00000000000000" foes="00000000000000" cont="0"/>
        <request index="13" response="00000000000000" foes="00000000000000" cont="0"/>
    </junction>
    <junction id="J40" type="dead_end" x="-4400.00" y="38000.00" incLanes="" intLanes="" shape="-4400.00,38000.00"/>
    <junction id="J8" type="dead_end" x="900.00" y="-1400.00" incLanes="E6_0 E6_1 E6_2 E6_3" intLanes="" shape="900.00,-1400.00 900.00,-1412.80 900.00,-1400.00"/>
    <junction id="MIA" type="traffic_light" x="-100.00" y="-1400.00" incLanes="E5_0 E5_1 E5_2 E5_3 E5_4 E5_5 E5_6 E15_0 E15_1 -E10_0 -E10_1 -E10_2 -E10_3 -E10_4 E9_0 E9_1 E9_2 E9_3 E9_4" intLanes=":MIA_0_0 :MIA_1_0 :MIA_1_1 :MIA_1_2 :MIA_1_3 :MIA_5_0 :MIA_5_1 :MIA_7_0 :MIA_7_1 :MIA_7_2 :MIA_7_3 :MIA_11_0 :MIA_11_1 :MIA_13_0 :MIA_14_0 :MIA_14_1 :MIA_14_2 :MIA_14_3 :MIA_18_0 :MIA_18_1 :MIA_20_0 :MIA_21_0 :MIA_21_1 :MIA_21_2 :MIA_24_0 :MIA_24_1" shape="-122.40,-1383.20 -87.23,-1383.13 -87.03,-1386.33 -86.42,-1388.95 -85.41,-1390.98 -84.01,-1392.44 -82.20,-1393.31 -80.00,-1393.60 -80.00,-1412.80 -82.22,-1413.60 -83.00,-1414.60 -83.56,-1416.00 -83.89,-1417.80 -84.00,-1420.00 -112.80,-1420.00 -114.31,-1417.78 -116.20,-1417.00 -118.84,-1416.44 -122.24,-1416.11 -126.40,-1416.00 -126.40,-1387.20 -124.18,-1386.76 -123.40,-1386.20 -122.84,-1385.42 -122.51,-1384.42" rightOfWay="edgePriority">
        <request index="0"  response="00000000000000011110000000" foes="00000000000000011110000000" cont="0"/>
        <request index="1"  response="00111000000000000000000000" foes="11111111000001111110000000" cont="0"/>
        <request index="2"  response="00111000000000000000000000" foes="11111111000001111110000000" cont="0"/>
        <request index="3"  response="00111000000000000000000000" foes="11111111000001111110000000" cont="0"/>
        <request index="4"  response="00111000000000000000000000" foes="11111111000001111110000000" cont="0"/>
        <request index="5"  response="11111000111100011110000000" foes="11111000111101111110000000" cont="0"/>
        <request index="6"  response="11111000111100011110000000" foes="11111000111101111110000000" cont="0"/>
        <request index="7"  response="00000000000000000000011110" foes="11000011111100000001111111" cont="0"/>
        <request index="8"  response="00000000000000000000011110" foes="11000011111100000001111111" cont="0"/>
        <request index="9"  response="00000000000000000000011110" foes="11000011111100000001111111" cont="0"/>
        <request index="10" response="00000000000000000000011110" foes="11000011111100000001111111" cont="0"/>
        <request index="11" response="00111000111100000001111110" foes="00111011111100000001111110" cont="0"/>
        <request index="12" response="00111000111100000001111110" foes="00111011111100000001111110" cont="0"/>
        <request index="13" response="00000000000000000000000000" foes="00000000000000000000000000" cont="0"/>
        <request index="14" response="00000000000000011110000000" foes="11111000000001111111100000" cont="0"/>
        <request index="15" response="00000000000000011110000000" foes="11111000000001111111100000" cont="0"/>
        <request index="16" response="00000000000000011110000000" foes="11111000000001111111100000" cont="0"/>
        <request index="17" response="00000000000000011110000000" foes="11111000000001111111100000" cont="0"/>
        <request index="18" response="00111000000001111110011110" foes="11111000000001111110011110" cont="0"/>
        <request index="19" response="00111000000001111110011110" foes="11111000000001111110011110" cont="0"/>
        <request index="20" response="00000000000000000000011110" foes="00000000000000000000011110" cont="0"/>
        <request index="21" response="00000000111100000000000000" foes="00000011111101100001111110" cont="0"/>
        <request index="22" response="00000000111100000000000000" foes="00000011111101100001111110" cont="0"/>
        <request index="23" response="00000000111100000000000000" foes="00000011111101100001111110" cont="0"/>
        <request index="24" response="00000011111100011110011110" foes="00000011111100011111111110" cont="0"/>
        <request index="25" response="00000011111100011110011110" foes="00000011111100011111111110" cont="0"/>
    </junction>

    <connection from="-E10" to="E6" fromLane="0" toLane="0" via=":MIA_13_0" tl="MIA" linkIndex="13" dir="r" state="O"/>
    <connection from="-E10" to="E12" fromLane="1" toLane="0" via=":MIA_14_0" tl="MIA" linkIndex="14" dir="s" state="o"/>
    <connection from="-E10" to="E12" fromLane="1" toLane="1" via=":MIA_14_1" tl="MIA" linkIndex="15" dir="s" state="o"/>
    <connection from="-E10" to="E12" fromLane="2" toLane="2" via=":MIA_14_2" tl="MIA" linkIndex="16" dir="s" state="o"/>
    <connection from="-E10" to="E12" fromLane="3" toLane="3" via=":MIA_14_3" tl="MIA" linkIndex="17" dir="s" state="o"/>
    <connection from="-E10" to="-E9" fromLane="4" toLane="2" via=":MIA_18_0" tl="MIA" linkIndex="18" dir="l" state="o"/>
    <connection from="-E10" to="-E9" fromLane="4" toLane="3" via=":MIA_18_1" tl="MIA" linkIndex="19" dir="l" state="o"/>
    <connection from="E12" to="E13" fromLane="0" toLane="4" via=":J12_4_0" dir="s" state="M"/>
    <connection from="E12" to="E13" fromLane="1" toLane="5" via=":J12_4_1" dir="s" state="M"/>
    <connection from="E12" to="E13" fromLane="2" toLane="6" via=":J12_4_2" dir="s" state="M"/>
    <connection from="E12" to="E13" fromLane="3" toLane="7" via=":J12_4_3" dir="s" state="M"/>
    <connection from="E13" to="-E3" fromLane="0" toLane="0" via=":J4_7_0" dir="s" state="M"/>
    <connection from="E13" to="-E3" fromLane="1" toLane="1" via=":J4_7_1" dir="s" state="M"/>
    <connection from="E13" to="-E3" fromLane="2" toLane="2" via=":J4_7_2" dir="s" state="M"/>
    <connection from="E13" to="-E3" fromLane="3" toLane="3" via=":J4_7_3" dir="s" state="M"/>
    <connection from="E13" to="-E3" fromLane="4" toLane="4" via=":J4_7_4" dir="s" state="M"/>
    <connection from="E13" to="-E3" fromLane="5" toLane="5" via=":J4_7_5" dir="s" state="M"/>
    <connection from="E13" to="-E3" fromLane="6" toLane="6" via=":J4_7_6" dir="s" state="M"/>
    <connection from="E14" to="E16" fromLane="0" toLane="0" via=":J13_0_0" dir="r" state="M"/>
    <connection from="E14" to="E15" fromLane="1" toLane="0" via=":J13_1_0" dir="s" state="M"/>