<?xml version="1.0" encoding="UTF-8"?>

<!-- generated on 2022-05-31 22:22:13 by Eclipse SUMO netedit Version 1.13.0
<configuration xmlns:xsi="http://www.w3.org/2001/XMLSchema-instance" xsi:noNamespaceSchemaLocation="http://sumo.dlr.de/xsd/netconvertConfiguration.xsd">

    <input>
        <sumo-net-file value="C:\Users\Lance\Desktop\All\MIA\MIA.net.xml"/>
    </input>

    <output>
        <output-file value="C:\Users\Lance\Desktop\All\MIA\MIA.net.xml"/>
    </output>

    <processing>
        <geometry.min-radius.fix.railways value="false"/>
        <geometry.max-grade.fix value="false"/>
        <offset.disable-normalization value="true"/>
        <lefthand value="false"/>
    </processing>

    <junctions>
        <no-turnarounds value="true"/>
        <junctions.corner-detail value="5"/>
        <junctions.limit-turn-speed value="5.5"/>
        <rectangular-lane-cut value="false"/>
    </junctions>

    <pedestrian>
        <walkingareas value="false"/>
    </pedestrian>

    <report>
        <aggregate-warnings value="5"/>
    </report>

</configuration>
-->

<net version="1.9" junctionCornerDetail="5" limitTurnSpeed="5.50" xmlns:xsi="http://www.w3.org/2001/XMLSchema-instance" xsi:noNamespaceSchemaLocation="http://sumo.dlr.de/xsd/net_file.xsd">

    <location netOffset="0.00,0.00" convBoundary="-4400.00,-3000.00,4500.00,40800.00" origBoundary="-10000000000.00,-10000000000.00,10000000000.00,10000000000.00" projParameter="!"/>

    <edge id=":J12_0" function="internal">
        <lane id=":J12_0_0" index="0" speed="6.99" length="4.77" shape="-74.20,-1365.31 -75.03,-1364.42 -75.63,-1363.42 -75.98,-1362.31 -76.10,-1361.10"/>
        <lane id=":J12_0_1" index="1" speed="8.62" length="7.49" shape="-76.31,-1367.71 -77.62,-1366.31 -78.56,-1364.74 -79.12,-1363.00 -79.30,-1361.09"/>
        <lane id=":J12_0_2" index="2" speed="9.99" length="10.21" shape="-78.42,-1370.11 -80.21,-1368.21 -81.48,-1366.07 -82.25,-1363.69 -82.50,-1361.09"/>
        <lane id=":J12_0_3" index="3" speed="11.19" length="12.94" shape="-80.53,-1372.52 -82.80,-1370.10 -84.41,-1367.39 -85.38,-1364.39 -85.70,-1361.09"/>
    </edge>
    <edge id=":J12_4" function="internal">
        <lane id=":J12_4_0" index="0" speed="15.28" length="9.47" shape="-88.87,-1370.54 -88.90,-1361.09"/>
        <lane id=":J12_4_1" index="1" speed="15.28" length="9.47" shape="-92.07,-1370.55 -92.10,-1361.09"/>
        <lane id=":J12_4_2" index="2" speed="15.28" length="9.47" shape="-95.27,-1370.56 -95.30,-1361.08"/>
        <lane id=":J12_4_3" index="3" speed="15.28" length="9.47" shape="-98.47,-1370.57 -98.50,-1361.08"/>
    </edge>
    <edge id=":J13_0" function="internal">
        <lane id=":J13_0_0" index="0" speed="13.21" length="14.19" shape="-41.33,-1392.33 -45.20,-1391.73 -47.49,-1390.08 -49.46,-1387.59 -52.38,-1384.47"/>
    </edge>
    <edge id=":J13_1" function="internal">
        <lane id=":J13_1_0" index="0" speed="15.28" length="18.85" shape="-41.33,-1395.53 -60.16,-1395.47"/>
        <lane id=":J13_1_1" index="1" speed="15.28" length="18.85" shape="-41.33,-1398.73 -60.18,-1398.67"/>
    </edge>
    <edge id=":J4_0" function="internal">
        <lane id=":J4_0_0" index="0" speed="16.67" length="10.17" shape="-114.40,-1196.00 -115.40,-1198.69 -117.60,-1200.01 -119.80,-1201.32 -120.80,-1204.01"/>
        <lane id=":J4_0_1" index="1" speed="16.67" length="10.17" shape="-111.20,-1196.00 -112.20,-1198.69 -114.40,-1200.01 -116.60,-1201.32 -117.60,-1204.01"/>
        <lane id=":J4_0_2" index="2" speed="16.67" length="10.17" shape="-108.00,-1196.00 -109.00,-1198.69 -111.20,-1200.01 -113.40,-1201.32 -114.40,-1204.01"/>
        <lane id=":J4_0_3" index="3" speed="16.67" length="10.17" shape="-104.80,-1196.00 -105.80,-1198.69 -108.00,-1200.01 -110.20,-1201.32 -111.20,-1204.01"/>
        <lane id=":J4_0_4" index="4" speed="16.67" length="10.17" shape="-101.60,-1196.00 -102.60,-1198.69 -104.80,-1200.01 -107.00,-1201.32 -108.00,-1204.01"/>
        <lane id=":J4_0_5" index="5" speed="16.67" length="10.17" shape="-101.60,-1196.00 -102.10,-1198.47 -103.20,-1200.01 -104.30,-1201.55 -104.80,-1204.01"/>
        <lane id=":J4_0_6" index="6" speed="16.67" length="10.17" shape="-101.60,-1196.00 -101.60,-1204.01"/>
    </edge>
    <edge id=":J4_7" function="internal">
        <lane id=":J4_7_0" index="0" speed="16.67" length="8.82" shape="-76.00,-1204.01 -76.50,-1201.55 -77.60,-1200.01 -78.70,-1198.47 -79.20,-1196.00"/>
        <lane id=":J4_7_1" index="1" speed="16.67" length="8.82" shape="-79.20,-1204.01 -79.70,-1201.55 -80.80,-1200.01 -81.90,-1198.47 -82.40,-1196.00"/>
        <lane id=":J4_7_2" index="2" speed="16.67" length="8.82" shape="-82.40,-1204.01 -82.90,-1201.55 -84.00,-1200.01 -85.10,-1198.47 -85.60,-1196.00"/>
        <lane id=":J4_7_3" index="3" speed="16.67" length="8.82" shape="-85.60,-1204.01 -86.10,-1201.55 -87.20,-1200.01 -88.30,-1198.47 -88.80,-1196.00"/>
        <lane id=":J4_7_4" index="4" speed="16.67" length="8.82" shape="-88.80,-1204.01 -89.30,-1201.55 -90.40,-1200.01 -91.50,-1198.47 -92.00,-1196.00"/>
        <lane id=":J4_7_5" index="5" speed="16.67" length="8.82" shape="-92.00,-1204.01 -92.50,-1201.55 -93.60,-1200.01 -94.70,-1198.47 -95.20,-1196.00"/>
        <lane id=":J4_7_6" index="6" speed="16.67" length="8.82" shape="-95.20,-1204.01 -95.70,-1201.55 -96.80,-1200.01 -97.90,-1198.47 -98.40,-1196.00"/>
    </edge>
    <edge id=":J7_0" function="internal">
        <lane id=":J7_0_0" index="0" speed="6.51" length="9.03" shape="-120.80,-1383.20 -121.15,-1385.65 -122.20,-1387.40 -123.95,-1388.45 -126.40,-1388.80"/>
    </edge>
    <edge id=":J7_1" function="internal">
        <lane id=":J7_1_0" index="0" speed="16.67" length="37.55" shape="-117.60,-1383.19 -116.60,-1394.19 -114.40,-1401.59 -112.20,-1408.99 -111.20,-1420.00"/>
        <lane id=":J7_1_1" index="1" speed="16.67" length="37.55" shape="-114.40,-1383.18 -113.40,-1394.19 -111.20,-1401.59 -109.00,-1408.99 -108.00,-1420.00"/>
        <lane id=":J7_1_2" index="2" speed="16.67" length="37.55" shape="-111.20,-1383.17 -110.20,-1394.18 -108.00,-1401.59 -105.80,-1408.99 -104.80,-1420.00"/>
        <lane id=":J7_1_3" index="3" speed="16.67" length="37.55" shape="-108.00,-1383.17 -107.00,-1394.18 -104.80,-1401.58 -102.60,-1408.99 -101.60,-1420.00"/>
    </edge>
    <edge id=":J7_5" function="internal">
        <lane id=":J7_5_0" index="0" speed="12.72" length="37.48" shape="-104.80,-1383.16 -103.25,-1392.63 -98.60,-1399.39 -90.85,-1403.45 -80.00,-1404.80"/>
        <lane id=":J7_5_1" index="1" speed="11.84" length="32.33" shape="-101.60,-1383.15 -100.25,-1391.22 -96.20,-1396.99 -89.45,-1400.45 -80.00,-1401.60"/>
    </edge>
    <edge id=":J7_7" function="internal">
        <lane id=":J7_7_0" index="0" speed="15.28" length="46.59" shape="-80.00,-1395.34 -88.66,-1394.29 -99.45,-1392.04 -112.12,-1389.81 -126.40,-1388.80"/>
        <lane id=":J7_7_1" index="1" speed="15.28" length="46.59" shape="-80.00,-1395.34 -126.40,-1392.00"/>
        <lane id=":J7_7_2" index="2" speed="15.28" length="46.59" shape="-80.00,-1398.54 -126.40,-1395.20"/>
        <lane id=":J7_7_3" index="3" speed="15.28" length="46.59" shape="-80.00,-1398.54 -126.40,-1398.40"/>
    </edge>
    <edge id=":J7_11" function="internal">
        <lane id=":J7_11_0" index="0" speed="12.68" length="37.41" shape="-80.00,-1398.54 -90.85,-1399.81 -98.60,-1403.82 -103.25,-1410.55 -104.80,-1420.00"/>
        <lane id=":J7_11_1" index="1" speed="12.24" length="34.78" shape="-80.00,-1398.54 -89.45,-1399.82 -96.20,-1403.83 -100.25,-1410.55 -101.60,-1420.00"/>
    </edge>
    <edge id=":J7_13" function="internal">
        <lane id=":J7_13_0" index="0" speed="7.33" length="11.73" shape="-85.60,-1420.00 -85.25,-1416.15 -84.20,-1413.40 -82.45,-1411.75 -80.00,-1411.20"/>
    </edge>
    <edge id=":J7_14" function="internal">
        <lane id=":J7_14_0" index="0" speed="15.28" length="37.05" shape="-85.60,-1420.00 -86.10,-1409.03 -87.20,-1401.56 -88.32,-1394.09 -88.84,-1383.12"/>
        <lane id=":J7_14_1" index="1" speed="15.28" length="37.05" shape="-88.80,-1420.00 -89.30,-1409.03 -90.40,-1401.56 -91.52,-1394.09 -92.04,-1383.13"/>
        <lane id=":J7_14_2" index="2" speed="15.28" length="37.05" shape="-92.00,-1420.00 -92.50,-1409.04 -93.60,-1401.57 -94.72,-1394.10 -95.24,-1383.14"/>
        <lane id=":J7_14_3" index="3" speed="15.28" length="37.05" shape="-95.20,-1420.00 -95.70,-1409.04 -96.80,-1401.57 -97.92,-1394.11 -98.44,-1383.14"/>
    </edge>
    <edge id=":J7_18" function="internal">
        <lane id=":J7_18_0" index="0" speed="13.54" length="42.61" shape="-98.40,-1420.00 -100.15,-1409.15 -105.40,-1401.40 -114.15,-1396.75 -126.40,-1395.20"/>
        <lane id=":J7_18_1" index="1" speed="13.15" length="40.13" shape="-98.40,-1420.00 -100.15,-1410.55 -105.40,-1403.80 -114.15,-1399.75 -126.40,-1398.40"/>
    </edge>
    <edge id=":J7_20" function="internal">
        <lane id=":J7_20_0" index="0" speed="8.83" length="17.50" shape="-126.40,-1414.40 -119.75,-1414.75 -115.00,-1415.80 -112.15,-1417.55 -111.20,-1420.00"/>
    </edge>
    <edge id=":J7_21" function="internal">
        <lane id=":J7_21_0" index="0" speed="16.67" length="46.51" shape="-126.40,-1411.20 -80.00,-1408.00"/>
        <lane id=":J7_21_1" index="1" speed="16.67" length="46.51" shape="-126.40,-1408.00 -80.00,-1404.80"/>
        <lane id=":J7_21_2" index="2" speed="16.67" length="46.51" shape="-126.40,-1404.80 -80.00,-1401.60"/>
    </edge>
    <edge id=":J7_24" function="internal">
        <lane id=":J7_24_0" index="0" speed="13.21" length="40.55" shape="-126.40,-1401.60 -112.75,-1400.45 -103.01,-1396.98 -97.17,-1391.21 -95.24,-1383.14"/>
        <lane id=":J7_24_1" index="1" speed="12.76" length="37.75" shape="-126.40,-1401.60 -114.15,-1400.45 -105.41,-1396.99 -100.17,-1391.22 -98.44,-1383.14"/>
    </edge>

    <edge id="-E10" from="J11" to="J7" priority="-1" length="1000.00">
        <lane id="-E10_0" index="0" speed="16.67" length="1000.00" shape="-85.60,-3000.00 -85.60,-1420.00"/>
        <lane id="-E10_1" index="1" speed="16.67" length="1000.00" shape="-88.80,-3000.00 -88.80,-1420.00"/>
        <lane id="-E10_2" index="2" speed="16.67" length="1000.00" shape="-92.00,-3000.00 -92.00,-1420.00"/>
        <lane id="-E10_3" index="3" speed="16.67" length="1000.00" shape="-95.20,-3000.00 -95.20,-1420.00"/>
        <lane id="-E10_4" index="4" speed="16.67" length="1000.00" shape="-98.40,-3000.00 -98.40,-1420.00"/>
    </edge>
    <edge id="-E3" from="J4" to="J0" priority="-1">
        <lane id="-E3_0" index="0" speed="16.67" length="996.00" shape="-79.20,-1196.00 -79.20,-200.00"/>
        <lane id="-E3_1" index="1" speed="16.67" length="996.00" shape="-82.40,-1196.00 -82.40,-200.00"/>
        <lane id="-E3_2" index="2" speed="16.67" length="996.00" shape="-85.60,-1196.00 -85.60,-200.00"/>
        <lane id="-E3_3" index="3" speed="16.67" length="996.00" shape="-88.80,-1196.00 -88.80,-200.00"/>
        <lane id="-E3_4" index="4" speed="16.67" length="996.00" shape="-92.00,-1196.00 -92.00,-200.00"/>
        <lane id="-E3_5" index="5" speed="16.67" length="996.00" shape="-95.20,-1196.00 -95.20,-200.00"/>
        <lane id="-E3_6" index="6" speed="16.67" length="996.00" shape="-98.40,-1196.00 -98.40,-200.00"/>
    </edge>
    <edge id="-E9" from="J7" to="J10" priority="-1" length="1000.00">
        <lane id="-E9_0" index="0" speed="16.67" length="1000.00" shape="-126.40,-1388.80 -3100.00,-1388.80"/>
        <lane id="-E9_1" index="1" speed="16.67" length="1000.00" shape="-126.40,-1392.00 -3100.00,-1392.00"/>
        <lane id="-E9_2" index="2" speed="16.67" length="1000.00" shape="-126.40,-1395.20 -3100.00,-1395.20"/>
        <lane id="-E9_3" index="3" speed="16.67" length="1000.00" shape="-126.40,-1398.40 -3100.00,-1398.40"/>
    </edge>
    <edge id="E10" from="J7" to="J11" priority="-1" length="1000.00">
        <lane id="E10_0" index="0" speed="16.67" length="1000.00" shape="-111.20,-1420.00 -111.20,-3000.00"/>
        <lane id="E10_1" index="1" speed="16.67" length="1000.00" shape="-108.00,-1420.00 -108.00,-3000.00"/>
        <lane id="E10_2" index="2" speed="16.67" length="1000.00" shape="-104.80,-1420.00 -104.80,-3000.00"/>
        <lane id="E10_3" index="3" speed="16.67" length="1000.00" shape="-101.60,-1420.00 -101.60,-3000.00"/>
    </edge>
    <edge id="E12" from="J7" to="J12" priority="-1">
        <lane id="E12_0" index="0" speed="13.89" length="12.58" shape="-88.84,-1383.12 -88.87,-1370.54"/>
        <lane id="E12_1" index="1" speed="13.89" length="12.58" shape="-92.04,-1383.13 -92.07,-1370.55"/>
        <lane id="E12_2" index="2" speed="13.89" length="12.58" shape="-95.24,-1383.14 -95.27,-1370.56"/>
        <lane id="E12_3" index="3" speed="13.89" length="12.58" shape="-98.44,-1383.14 -98.47,-1370.57"/>
    </edge>
    <edge id="E13" from="J12" to="J4" priority="-1" length="300.00">
        <lane id="E13_0" index="0" speed="16.67" length="300.00" shape="-76.10,-1361.10 -76.00,-1204.01"/>
        <lane id="E13_1" index="1" speed="16.67" length="300.00" shape="-79.30,-1361.09 -79.20,-1204.01"/>
        <lane id="E13_2" index="2" speed="16.67" length="300.00" shape="-82.50,-1361.09 -82.40,-1204.01"/>
        <lane id="E13_3" index="3" speed="16.67" length="300.00" shape="-85.70,-1361.09 -85.60,-1204.01"/>
        <lane id="E13_4" index="4" speed="16.67" length="300.00" shape="-88.90,-1361.09 -88.80,-1204.01"/>
        <lane id="E13_5" index="5" speed="16.67" length="300.00" shape="-92.10,-1361.09 -92.00,-1204.01"/>
        <lane id="E13_6" index="6" speed="16.67" length="300.00" shape="-95.30,-1361.08 -95.20,-1204.01"/>
        <lane id="E13_7" index="7" speed="16.67" length="300.00" shape="-98.50,-1361.08 -98.40,-1204.01"/>
    </edge>
    <edge id="E14" from="J8" to="J13" priority="-1" length="900.00">
        <lane id="E14_0" index="0" speed="16.67" length="900.00" shape="3000.00,-1392.00 -41.33,-1392.33"/>
        <lane id="E14_1" index="1" speed="16.67" length="900.00" shape="3000.00,-1395.20 -41.33,-1395.53"/>
        <lane id="E14_2" index="2" speed="16.67" length="900.00" shape="3000.00,-1398.40 -41.33,-1398.73"/>
    </edge>
    <edge id="E15" from="J13" to="J7" priority="-1" length="100.00">
        <lane id="E15_0" index="0" speed="13.89" length="100.00" shape="-60.16,-1395.47 -80.00,-1395.34"/>
        <lane id="E15_1" index="1" speed="13.89" length="100.00" shape="-60.18,-1398.67 -80.00,-1398.54"/>
    </edge>
    <edge id="E16" from="J13" to="J12" priority="-1" length="200.00">
        <lane id="E16_0" index="0" speed="16.67" length="200.00" shape="-52.38,-1384.47 -74.20,-1365.31"/>
        <lane id="E16_1" index="1" speed="16.67" length="200.00" shape="-54.49,-1386.87 -76.31,-1367.71"/>
        <lane id="E16_2" index="2" speed="16.67" length="200.00" shape="-56.61,-1389.28 -78.42,-1370.11"/>
        <lane id="E16_3" index="3" speed="16.67" length="200.00" shape="-58.72,-1391.68 -80.53,-1372.52"/>
    </edge>
    <edge id="E3" from="J0" to="J4" priority="-1">
        <lane id="E3_0" index="0" speed="16.67" length="996.00" shape="-114.40,-200.00 -114.40,-1196.00"/>
        <lane id="E3_1" index="1" speed="16.67" length="996.00" shape="-111.20,-200.00 -111.20,-1196.00"/>
        <lane id="E3_2" index="2" speed="16.67" length="996.00" shape="-108.00,-200.00 -108.00,-1196.00"/>
        <lane id="E3_3" index="3" speed="16.67" length="996.00" shape="-104.80,-200.00 -104.80,-1196.00"/>
        <lane id="E3_4" index="4" speed="16.67" length="996.00" shape="-101.60,-200.00 -101.60,-1196.00"/>
    </edge>
    <edge id="E5" from="J4" to="J7" priority="-1" length="300.00">
        <lane id="E5_0" index="0" speed="16.67" length="300.00" shape="-120.80,-1204.01 -120.80,-1383.20"/>
        <lane id="E5_1" index="1" speed="16.67" length="300.00" shape="-117.60,-1204.01 -117.60,-1383.19"/>
        <lane id="E5_2" index="2" speed="16.67" length="300.00" shape="-114.40,-1204.01 -114.40,-1383.18"/>
        <lane id="E5_3" index="3" speed="16.67" length="300.00" shape="-111.20,-1204.01 -111.20,-1383.17"/>
        <lane id="E5_4" index="4" speed="16.67" length="300.00" shape="-108.00,-1204.01 -108.00,-1383.17"/>
        <lane id="E5_5" index="5" speed="16.67" length="300.00" shape="-104.80,-1204.01 -104.80,-1383.16"/>
        <lane id="E5_6" index="6" speed="16.67" length="300.00" shape="-101.60,-1204.01 -101.60,-1383.15"/>
    </edge>
    <edge id="E6" from="J7" to="J8" priority="-1" length="1000.00">
        <lane id="E6_0" index="0" speed="16.67" length="1000.00" shape="-80.00,-1411.20 3000.00,-1411.20"/>
        <lane id="E6_1" index="1" speed="16.67" length="1000.00" shape="-80.00,-1408.00 3000.00,-1408.00"/>
        <lane id="E6_2" index="2" speed="16.67" length="1000.00" shape="-80.00,-1404.80 3000.00,-1404.80"/>
        <lane id="E6_3" index="3" speed="16.67" length="1000.00" shape="-80.00,-1401.60 3000.00,-1401.60"/>
    </edge>
    <edge id="E9" from="J10" to="J7" priority="-1" length="1000.00">
        <lane id="E9_0" index="0" speed="16.67" length="1000.00" shape="-3100.00,-1414.40 -126.40,-1414.40"/>
        <lane id="E9_1" index="1" speed="16.67" length="1000.00" shape="-3100.00,-1411.20 -126.40,-1411.20"/>
        <lane id="E9_2" index="2" speed="16.67" length="1000.00" shape="-3100.00,-1408.00 -126.40,-1408.00"/>
        <lane id="E9_3" index="3" speed="16.67" length="1000.00" shape="-3100.00,-1404.80 -126.40,-1404.80"/>
        <lane id="E9_4" index="4" speed="16.67" length="1000.00" shape="-3100.00,-1401.60 -126.40,-1401.60"/>
    </edge>

    <tlLogic id="J7" type="static" programID="0" offset="0">
        <phase duration="10" state="rGGGGrrrrrrrrrGGGGrrrrrrrrr"/>
        <phase duration="5"  state="ryyyyrrrrrrrrrGGGGrrrrrrrrr"/>
        <phase duration="10" state="rrrrrrrrrrrrrrGGGGGGGGrrrrr"/>
        <phase duration="5"  state="rrrrrrrrrrrrrryyyyyyyyrrrrr"/>
        <phase duration="10" state="GrrrrrrrrrrrrrrrrrrrrrGGGgg"/>
        <phase duration="5"  state="yrrrrrrrrrrrrrrrrrrrrryyyyy"/>
        <phase duration="10" state="rrrrrrrGGGGGGGrrrrrrrrrrrrr"/>
        <phase duration="5"  state="rrrrrrryyyyyyyrrrrrrrrrrrrr"/>
        <phase duration="10" state="rGGGGGGrrrrrrrrrrrrrrrrrrrr"/>
        <phase duration="5"  state="ryyyyyyrrrrrrrrrrrrrrrrrrrr"/>
    </tlLogic>

    <junction id="J0" type="dead_end" x="-100.00" y="-200.00" incLanes="-E3_0 -E3_1 -E3_2 -E3_3 -E3_4 -E3_5 -E3_6" intLanes="" shape="-100.00,-200.00 -77.60,-200.00 -100.00,-200.00"/>
    <junction id="J10" type="dead_end" x="-3100.00" y="-1400.00" incLanes="-E9_0 -E9_1 -E9_2 -E9_3" intLanes="" shape="-3100.00,-1400.00 -3100.00,-1387.20 -3100.00,-1400.00"/>
    <junction id="J11" type="dead_end" x="-100.00" y="-3000.00" incLanes="E10_0 E10_1 E10_2 E10_3" intLanes="" shape="-100.00,-3000.00 -112.80,-3000.00 -100.00,-3000.00"/>
    <junction id="J12" type="priority" x="-100.10" y="-1357.46" incLanes="E16_0 E16_1 E16_2 E16_3 E12_0 E12_1 E12_2 E12_3" intLanes=":J12_0_0 :J12_0_1 :J12_0_2 :J12_0_3 :J12_4_0 :J12_4_1 :J12_4_2 :J12_4_3" shape="-100.10,-1361.08 -74.50,-1361.10 -74.35,-1362.24 -74.16,-1362.75 -73.90,-1363.24 -73.56,-1363.69 -73.14,-1364.10 -81.59,-1373.72 -83.33,-1372.25 -84.75,-1371.15 -85.85,-1370.43 -86.64,-1370.09 -87.11,-1370.12 -87.27,-1370.54 -100.07,-1370.57">
        <request index="0" response="00000000" foes="00000000" cont="0"/>
        <request index="1" response="00000000" foes="00000000" cont="0"/>
        <request index="2" response="00000000" foes="00000000" cont="0"/>
        <request index="3" response="00000000" foes="00000000" cont="0"/>
        <request index="4" response="00000000" foes="00000000" cont="0"/>
        <request index="5" response="00000000" foes="00000000" cont="0"/>
        <request index="6" response="00000000" foes="00000000" cont="0"/>
        <request index="7" response="00000000" foes="00000000" cont="0"/>
    </junction>
    <junction id="J13" type="priority" x="-51.30" y="-1400.33" incLanes="E14_0 E14_1 E14_2" intLanes=":J13_0_0 :J13_1_0 :J13_1_1" shape="-41.33,-1390.73 -41.33,-1400.33 -60.19,-1400.27 -60.15,-1393.87 -59.44,-1393.77 -59.30,-1393.63 -59.31,-1393.44 -59.47,-1393.19 -59.77,-1392.89 -51.33,-1383.27 -49.39,-1385.25 -48.04,-1387.03 -46.91,-1388.54 -45.65,-1389.71 -43.91,-1390.46">
        <request index="0" response="000" foes="000" cont="0"/>
        <request index="1" response="000" foes="000" cont="0"/>
        <request index="2" response="000" foes="000" cont="0"/>
    </junction>
    <junction id="J14" type="dead_end" x="4500.00" y="32000.00" incLanes="" intLanes="" shape="4500.00,32000.00"/>
    <junction id="J16" type="dead_end" x="3000.00" y="2500.00" incLanes="" intLanes="" shape="3000.00,2500.00"/>
    <junction id="J17" type="dead_end" x="-3100.00" y="2500.00" incLanes="" intLanes="" shape="-3100.00,2500.00"/>
    <junction id="J21" type="dead_end" x="3200.00" y="6900.00" incLanes="" intLanes="" shape="3200.00,6900.00"/>
    <junction id="J22" type="dead_end" x="-3100.00" y="6900.00" incLanes="" intLanes="" shape="-3100.00,6900.00"/>
    <junction id="J26" type="dead_end" x="-3900.00" y="10200.00" incLanes="" intLanes="" shape="-3900.00,10200.00"/>
    <junction id="J27" type="dead_end" x="-100.00" y="13300.00" incLanes="" intLanes="" shape="-100.00,13300.00"/>
    <junction id="J28" type="dead_end" x="4300.00" y="38000.00" incLanes="" intLanes="" shape="4300.00,38000.00"/>
    <junction id="J29" type="dead_end" x="-100.00" y="11700.00" incLanes="" intLanes="" shape="-100.00,11700.00"/>
    <junction id="J32" type="dead_end" x="3000.00" y="10200.00" incLanes="" intLanes="" shape="3000.00,10200.00"/>
    <junction id="J34" type="dead_end" x="0.00" y="11700.00" incLanes="" intLanes="" shape="0.00,11700.00"/>
    <junction id="J36" type="dead_end" x="3000.00" y="24200.00" incLanes="" intLanes="" shape="3000.00,24200.00"/>
    <junction id="J37" type="dead_end" x="-3400.00" y="24200.00" incLanes="" intLanes="" shape="-3400.00,24200.00"/>
    <junction id="J38" type="dead_end" x="-100.00" y="28600.00" incLanes="" intLanes="" shape="-100.00,28600.00"/>
    <junction id="J39" type="dead_end" x="-100.00" y="40800.00" incLanes="" intLanes="" shape="-100.00,40800.00"/>
    <junction id="J4" type="priority" x="-100.00" y="-1200.00" incLanes="E3_0 E3_1 E3_2 E3_3 E3_4 E13_0 E13_1 E13_2 E13_3 E13_4 E13_5 E13_6 E13_7" intLanes=":J4_0_0 :J4_0_1 :J4_0_2 :J4_0_3 :J4_0_4 :J4_0_5 :J4_0_6 :J4_7_0 :J4_7_1 :J4_7_2 :J4_7_3 :J4_7_4 :J4_7_5 :J4_7_6" shape="-116.00,-1196.00 -77.60,-1196.00 -76.77,-1199.04 -75.23,-1200.98 -74.64,-1202.22 -74.40,-1204.01 -122.40,-1204.01 -121.93,-1202.00 -120.74,-1200.80 -117.66,-1199.22 -116.47,-1198.02">
        <request index="0"  response="00000000000000" foes="00000000000000" cont="0"/>
        <request index="1"  response="00000000000000" foes="00000000000000" cont="0"/>
        <request index="2"  response="00000000000000" foes="00000000000000" cont="0"/>
        <request index="3"  response="00000000000000" foes="00000000000000" cont="0"/>
        <request index="4"  response="00000000000000" foes="00000000000000" cont="0"/>
        <request index="5"  response="00000000000000" foes="00000000000000" cont="0"/>
        <request index="6"  response="00000000000000" foes="00000000000000" cont="0"/>
        <request index="7"  response="00000000000000" foes="00000000000000" cont="0"/>
        <request index="8"  response="00000000000000" foes="00000000000000" cont="0"/>
        <request index="9"  response="00000000000000" foes="00000000000000" cont="0"/>
        <request index="10" response="00000000000000" foes="00000000000000" cont="0"/>
        <request index="11" response="00000000000000" foes="00000000000000" cont="0"/>
        <request index="12" response="00000000000000" foes="00000000000000" cont="0"/>
        <request index="13" response="00000000000000" foes="00000000000000" cont="0"/>
    </junction>
    <junction id="J40" type="dead_end" x="-4400.00" y="38000.00" incLanes="" intLanes="" shape="-4400.00,38000.00"/>
    <junction id="J7" type="traffic_light" x="-100.00" y="-1400.00" incLanes="E5_0 E5_1 E5_2 E5_3 E5_4 E5_5 E5_6 E15_0 E15_1 -E10_0 -E10_1 -E10_2 -E10_3 -E10_4 E9_0 E9_1 E9_2 E9_3 E9_4" intLanes=":J7_0_0 :J7_1_0 :J7_1_1 :J7_1_2 :J7_1_3 :J7_5_0 :J7_5_1 :J7_7_0 :J7_7_1 :J7_7_2 :J7_7_3 :J7_11_0 :J7_11_1 :J7_13_0 :J7_14_0 :J7_14_1 :J7_14_2 :J7_14_3 :J7_18_0 :J7_18_1 :J7_20_0 :J7_21_0 :J7_21_1 :J7_21_2 :J7_24_0 :J7_24_1" shape="-122.40,-1383.20 -87.24,-1383.12 -87.03,-1386.35 -86.42,-1388.99 -85.42,-1391.06 -84.01,-1392.53 -82.21,-1393.43 -80.00,-1393.74 -80.00,-1412.80 -82.22,-1413.60 -83.00,-1414.60 -83.56,-1416.00 -83.89,-1417.80 -84.00,-1420.00 -112.80,-1420.00 -114.31,-1417.78 -116.20,-1417.00 -118.84,-1416.44 -122.24,-1416.11 -126.40,-1416.00 -126.40,-1387.20 -124.18,-1386.76 -123.40,-1386.20 -122.84,-1385.42 -122.51,-1384.42">
        <request index="0"  response="00000000000000000000000000" foes="00000000000000011110000000" cont="0"/>
        <request index="1"  response="00000000000000000000000000" foes="11111111000001111110000000" cont="0"/>
        <request index="2"  response="00000000000000000000000000" foes="11111111000001111110000000" cont="0"/>
        <request index="3"  response="00000000000000000000000000" foes="11111111000001111110000000" cont="0"/>
        <request index="4"  response="00000000000000000000000000" foes="11111111000001111110000000" cont="0"/>
        <request index="5"  response="00000000111100000000000000" foes="11111000111101111110000000" cont="0"/>
        <request index="6"  response="00000000111100000000000000" foes="11111000111101111110000000" cont="0"/>
        <request index="7"  response="00000011111100000001111111" foes="11000011111100000001111111" cont="0"/>
        <request index="8"  response="00000011111100000001111111" foes="11000011111100000001111111" cont="0"/>
        <request index="9"  response="00000011111100000001111111" foes="11000011111100000001111111" cont="0"/>
        <request index="10" response="00000011111100000001111111" foes="11000011111100000001111111" cont="0"/>
        <request index="11" response="00111011111100000001111110" foes="00111011111100000001111110" cont="0"/>
        <request index="12" response="00111011111100000001111110" foes="00111011111100000001111110" cont="0"/>
        <request index="13" response="00000000000000000000000000" foes="00000000000000000000000000" cont="0"/>
        <request index="14" response="00000000000000000000000000" foes="11111000000001111111100000" cont="0"/>
        <request index="15" response="00000000000000000000000000" foes="11111000000001111111100000" cont="0"/>
        <request index="16" response="00000000000000000000000000" foes="11111000000001111111100000" cont="0"/>
        <request index="17" response="00000000000000000000000000" foes="11111000000001111111100000" cont="0"/>
        <request index="18" response="00000000000000000000011110" foes="11111000000001111110011110" cont="0"/>
        <request index="19" response="00000000000000000000011110" foes="11111000000001111110011110" cont="0"/>
        <request index="20" response="00000000000000000000011110" foes="00000000000000000000011110" cont="0"/>
        <request index="21" response="00000011111100000001111110" foes="00000011111101100001111110" cont="0"/>
        <request index="22" response="00000011111100000001111110" foes="00000011111101100001111110" cont="0"/>
        <request index="23" response="00000011111100000001111110" foes="00000011111101100001111110" cont="0"/>
        <request index="24" response="00000011111100011111111110" foes="00000011111100011111111110" cont="0"/>
        <request index="25" response="00000011111100011111111110" foes="00000011111100011111111110" cont="0"/>
    </junction>
    <junction id="J8" type="dead_end" x="3000.00" y="-1400.00" incLanes="E6_0 E6_1 E6_2 E6_3" intLanes="" shape="3000.00,-1400.00 3000.00,-1390.40 3000.00,-1412.80"/>

    <connection from="-E10" to="E6" fromLane="0" toLane="0" via=":J7_13_0" tl="J7" linkIndex="13" dir="r" state="O"/>
    <connection from="-E10" to="E12" fromLane="0" toLane="0" via=":J7_14_0" tl="J7" linkIndex="14" dir="s" state="O"/>
    <connection from="-E10" to="E12" fromLane="1" toLane="1" via=":J7_14_1" tl="J7" linkIndex="15" dir="s" state="O"/>
    <connection from="-E10" to="E12" fromLane="2" toLane="2" via=":J7_14_2" tl="J7" linkIndex="16" dir="s" state="O"/>
    <connection from="-E10" to="E12" fromLane="3" toLane="3" via=":J7_14_3" tl="J7" linkIndex="17" dir="s" state="O"/>
    <connection from="-E10" to="-E9" fromLane="4" toLane="2" via=":J7_18_0" tl="J7" linkIndex="18" dir="l" state="o"/>
    <connection from="-E10" to="-E9" fromLane="4" toLane="3" via=":J7_18_1" tl="J7" linkIndex="19" dir="l" state="o"/>
    <connection from="E12" to="E13" fromLane="0" toLane="4" via=":J12_4_0" dir="s" state="M"/>
    <connection from="E12" to="E13" fromLane="1" toLane="5" via=":J12_4_1" dir="s" state="M"/>
    <connection from="E12" to="E13" fromLane="2" toLane="6" via=":J12_4_2" dir="s" state="M"/>
    <connection from="E12" to="E13" fromLane="3" toLane="7" via=":J12_4_3" dir="s" state="M"/>
    <connection from="E13" to="-E3" fromLane="0" toLane="0" via=":J4_7_0" dir="s" state="M"/>
    <connection from="E13" to="-E3" fromLane="1" toLane="1" via=":J4_7_1" dir="s" state="M"/>
    <connection from="E13" to="-E3" fromLane="2" toLane="2" via=":J4_7_2" dir="s" state="M"/>
    <connection from="E13" to="-E3" fromLane="3" toLane="3" via=":J4_7_3" dir="s" state="M"/>
    <connection from="E13" to="-E3" fromLane="4" toLane="4" via=":J4_7_4" dir="s" state="M"/>
    <connection from="E13" to="-E3" fromLane="5" toLane="5" via=":J4_7_5" dir="s" state="M"/>
    <connection from="E13" to="-E3" fromLane="6" toLane="6" via=":J4_7_6" dir="s" state="M"/>
    <connection from="E14" to="E16" fromLane="0" toLane="0" via=":J13_0_0" dir="R" state="M"/>
    <connection from="E14" to="E15" fromLane="1" toLane="0" via=":J13_1_0" dir="s" state="M"/>