<?xml version="1.0" encoding="UTF-8"?>

<!-- generated on 2022-04-22 14:19:29 by Eclipse SUMO netedit Version 1.10.0
<configuration xmlns:xsi="http://www.w3.org/2001/XMLSchema-instance" xsi:noNamespaceSchemaLocation="http://sumo.dlr.de/xsd/netconvertConfiguration.xsd">

    <input>
        <sumo-net-file value="environment.net.xml"/>
    </input>

    <output>
        <output-file value="environment.net.xml"/>
    </output>

    <processing>
        <geometry.min-radius.fix.railways value="false"/>
        <geometry.max-grade.fix value="false"/>
        <offset.disable-normalization value="true"/>
        <lefthand value="false"/>
    </processing>

    <junctions>
        <no-turnarounds value="true"/>
        <junctions.corner-detail value="5"/>
        <junctions.limit-turn-speed value="5.5"/>
        <rectangular-lane-cut value="false"/>
    </junctions>

    <pedestrian>
        <walkingareas value="false"/>
    </pedestrian>

    <report>
        <aggregate-warnings value="5"/>
    </report>

</configuration>
-->

<net version="1.9" junctionCornerDetail="5" limitTurnSpeed="5.50" xmlns:xsi="http://www.w3.org/2001/XMLSchema-instance" xsi:noNamespaceSchemaLocation="http://sumo.dlr.de/xsd/net_file.xsd">

    <location netOffset="0.00,0.00" convBoundary="-750.00,-750.00,750.00,750.00" origBoundary="-10000000000.00,-10000000000.00,10000000000.00,10000000000.00" projParameter="!"/>

    <edge id=":MN_0" function="internal">
        <lane id=":MN_0_0" index="0" speed="6.51" length="9.03" shape="-11.20,16.80 -11.55,14.35 -12.60,12.60 -14.35,11.55 -16.80,11.20"/>
    </edge>
    <edge id=":MN_1" function="internal">
        <lane id=":MN_1_0" index="0" speed="36.95" length="33.60" shape="-11.20,16.80 -11.20,-16.80"/>
        <lane id=":MN_1_1" index="1" speed="36.95" length="33.60" shape="-8.00,16.80 -8.00,-16.80"/>
        <lane id=":MN_1_2" index="2" speed="36.95" length="33.60" shape="-4.80,16.80 -4.80,-16.80"/>
    </edge>
    <edge id=":MN_4" function="internal">
        <lane id=":MN_4_0" index="0" speed="11.36" length="29.67" shape="-1.60,16.80 -0.45,8.75 3.00,3.00 8.75,-0.45 16.80,-1.60"/>
    </edge>
    <edge id=":MN_5" function="internal">
        <lane id=":MN_5_0" index="0" speed="6.51" length="9.03" shape="16.80,11.20 14.35,11.55 12.60,12.60 11.55,14.35 11.20,16.80"/>
    </edge>
    <edge id=":MN_6" function="internal">
        <lane id=":MN_6_0" index="0" speed="60.00" length="33.60" shape="16.80,11.20 -16.80,11.20"/>
        <lane id=":MN_6_1" index="1" speed="60.00" length="33.60" shape="16.80,8.00 -16.80,8.00"/>
        <lane id=":MN_6_2" index="2" speed="60.00" length="33.60" shape="16.80,4.80 -16.80,4.80"/>
    </edge>
    <edge id=":MN_9" function="internal">
        <lane id=":MN_9_0" index="0" speed="11.36" length="29.67" shape="16.80,1.60 8.75,0.45 3.00,-3.00 -0.45,-8.75 -1.60,-16.80"/>
    </edge>
    <edge id=":MN_10" function="internal">
        <lane id=":MN_10_0" index="0" speed="6.51" length="9.03" shape="11.20,-16.80 11.55,-14.35 12.60,-12.60 14.35,-11.55 16.80,-11.20"/>
    </edge>
    <edge id=":MN_11" function="internal">
        <lane id=":MN_11_0" index="0" speed="36.95" length="33.60" shape="11.20,-16.80 11.20,16.80"/>
        <lane id=":MN_11_1" index="1" speed="36.95" length="33.60" shape="8.00,-16.80 8.00,16.80"/>
        <lane id=":MN_11_2" index="2" speed="36.95" length="33.60" shape="4.80,-16.80 4.80,16.80"/>
    </edge>
    <edge id=":MN_14" function="internal">
        <lane id=":MN_14_0" index="0" speed="11.36" length="29.67" shape="1.60,-16.80 0.45,-8.75 -3.00,-3.00 -8.75,0.45 -16.80,1.60"/>
    </edge>
    <edge id=":MN_15" function="internal">
        <lane id=":MN_15_0" index="0" speed="6.51" length="9.03" shape="-16.80,-11.20 -14.35,-11.55 -12.60,-12.60 -11.55,-14.35 -11.20,-16.80"/>
    </edge>
    <edge id=":MN_16" function="internal">
        <lane id=":MN_16_0" index="0" speed="60.00" length="33.60" shape="-16.80,-11.20 16.80,-11.20"/>
        <lane id=":MN_16_1" index="1" speed="60.00" length="33.60" shape="-16.80,-8.00 16.80,-8.00"/>
        <lane id=":MN_16_2" index="2" speed="60.00" length="33.60" shape="-16.80,-4.80 16.80,-4.80"/>
    </edge>
    <edge id=":MN_19" function="internal">
        <lane id=":MN_19_0" index="0" speed="11.36" length="29.67" shape="-16.80,-1.60 -8.75,-0.45 -3.00,3.00 0.45,8.75 1.60,16.80"/>
    </edge>

    <edge id="bottom_in" from="SN" to="MN" priority="-1" length="750.00">
        <lane id="bottom_in_0" index="0" speed="13.89" length="750.00" shape="11.20,-750.00 11.20,-16.80"/>
        <lane id="bottom_in_1" index="1" speed="13.89" length="750.00" shape="8.00,-750.00 8.00,-16.80"/>
        <lane id="bottom_in_2" index="2" speed="13.89" length="750.00" shape="4.80,-750.00 4.80,-16.80"/>
        <lane id="bottom_in_3" index="3" speed="13.89" length="750.00" shape="1.60,-750.00 1.60,-16.80"/>
    </edge>
    <edge id="bottom_out" from="MN" to="SN" priority="-1" length="750.00">
        <lane id="bottom_out_0" index="0" speed="13.89" length="750.00" shape="-11.20,-16.80 -11.20,-750.00"/>
        <lane id="bottom_out_1" index="1" speed="13.89" length="750.00" shape="-8.00,-16.80 -8.00,-750.00"/>
        <lane id="bottom_out_2" index="2" speed="13.89" length="750.00" shape="-4.80,-16.80 -4.80,-750.00"/>
        <lane id="bottom_out_3" index="3" speed="13.89" length="750.00" shape="-1.60,-16.80 -1.60,-750.00"/>
    </edge>
    <edge id="left_in" from="WN" to="MN" priority="-1" length="750.00">
        <lane id="left_in_0" index="0" speed="60.00" length="750.00" shape="-750.00,-11.20 -16.80,-11.20"/>
        <lane id="left_in_1" index="1" speed="60.00" length="750.00" shape="-750.00,-8.00 -16.80,-8.00"/>
        <lane id="left_in_2" index="2" speed="60.00" length="750.00" shape="-750.00,-4.80 -16.80,-4.80"/>
        <lane id="left_in_3" index="3" speed="60.00" length="750.00" shape="-750.00,-1.60 -16.80,-1.60"/>
    </edge>
    <edge id="left_out" from="MN" to="WN" priority="-1" length="750.00">
        <lane id="left_out_0" index="0" speed="60.00" length="750.00" shape="-16.80,11.20 -750.00,11.20"/>
        <lane id="left_out_1" index="1" speed="60.00" length="750.00" shape="-16.80,8.00 -750.00,8.00"/>
        <lane id="left_out_2" index="2" speed="60.00" length="750.00" shape="-16.80,4.80 -750.00,4.80"/>
        <lane id="left_out_3" index="3" speed="60.00" length="750.00" shape="-16.80,1.60 -750.00,1.60"/>
    </edge>
    <edge id="right_in" from="EN" to="MN" priority="-1" length="750.00">
        <lane id="right_in_0" index="0" speed="60.00" length="750.00" shape="750.00,11.20 16.80,11.20"/>
        <lane id="right_in_1" index="1" speed="60.00" length="750.00" shape="750.00,8.00 16.80,8.00"/>
        <lane id="right_in_2" index="2" speed="60.00" length="750.00" shape="750.00,4.80 16.80,4.80"/>
        <lane id="right_in_3" index="3" speed="60.00" length="750.00" shape="750.00,1.60 16.80,1.60"/>
    </edge>
    <edge id="right_out" from="MN" to="EN" priority="-1" length="750.00">
        <lane id="right_out_0" index="0" speed="60.00" length="750.00" shape="16.80,-11.20 750.00,-11.20"/>
        <lane id="right_out_1" index="1" speed="60.00" length="750.00" shape="16.80,-8.00 750.00,-8.00"/>
        <lane id="right_out_2" index="2" speed="60.00" length="750.00" shape="16.80,-4.80 750.00,-4.80"/>
        <lane id="right_out_3" index="3" speed="60.00" length="750.00" shape="16.80,-1.60 750.00,-1.60"/>
    </edge>
    <edge id="top_in" from="NN" to="MN" priority="-1" length="750.00">
        <lane id="top_in_0" index="0" speed="60.00" length="750.00" shape="-11.20,750.00 -11.20,16.80"/>
        <lane id="top_in_1" index="1" speed="60.00" length="750.00" shape="-8.00,750.00 -8.00,16.80"/>
        <lane id="top_in_2" index="2" speed="60.00" length="750.00" shape="-4.80,750.00 -4.80,16.80"/>
        <lane id="top_in_3" index="3" speed="60.00" length="750.00" shape="-1.60,750.00 -1.60,16.80"/>
    </edge>
    <edge id="top_out" from="MN" to="NN" priority="-1" length="750.00">
        <lane id="top_out_0" index="0" speed="60.00" length="750.00" shape="11.20,16.80 11.20,750.00"/>
        <lane id="top_out_1" index="1" speed="60.00" length="750.00" shape="8.00,16.80 8.00,750.00"/>
        <lane id="top_out_2" index="2" speed="60.00" length="750.00" shape="4.80,16.80 4.80,750.00"/>
        <lane id="top_out_3" index="3" speed="60.00" length="750.00" shape="1.60,16.80 1.60,750.00"/>
    </edge>

    <tlLogic id="TL" type="static" programID="0" offset="0">
        <phase duration="20" state="rrrrrrGGGGGrrrrrrrGGGGGr"/>
        <phase duration="3"  state="rrrrrryyyyyrrrrrrryyyyyr"/>
        <phase duration="20" state="rrrrrrrrrrrGrrrrrrrrrrrG"/>
        <phase duration="3"  state="rrrrrrrrrrryrrrrrrrrrrry"/>
        <phase duration="20" state="GGGGGrrrrrrrGGGGGrrrrrrr"/>
        <phase duration="3"  state="yyyyyrrrrrrryyyyyrrrrrrr"/>
        <phase duration="20" state="rrrrrGrrrrrrrrrrrGrrrrrr"/>
        <phase duration="3"  state="rrrrryrrrrrrrrrrryrrrrrr"/>
    </tlLogic>

    <junction id="EN" type="dead_end" x="750.00" y="0.00" incLanes="right_out_0 right_out_1 right_out_2 right_out_3" intLanes="" shape="750.00,0.00 750.00,-12.80 750.00,0.00"/>
    <junction id="MN" type="traffic_light" x="0.00" y="0.00" incLanes="top_in_0 top_in_1 top_in_2 top_in_3 right_in_0 right_in_1 right_in_2 right_in_3 bottom_in_0 bottom_in_1 bottom_in_2 bottom_in_3 left_in_0 left_in_1 left_in_2 left_in_3" intLanes=":MN_0_0 :MN_1_0 :MN_1_1 :MN_1_2 :MN_4_0 :MN_5_0 :MN_6_0 :MN_6_1 :MN_6_2 :MN_9_0 :MN_10_0 :MN_11_0 :MN_11_1 :MN_11_2 :MN_14_0 :MN_15_0 :MN_16_0 :MN_16_1 :MN_16_2 :MN_19_0" shape="-12.80,16.80 12.80,16.80 13.24,14.58 13.80,13.80 14.58,13.24 15.58,12.91 16.80,12.80 16.80,-12.80 14.58,-13.24 13.80,-13.80 13.24,-14.58 12.91,-15.58 12.80,-16.80 -12.80,-16.80 -13.24,-14.58 -13.80,-13.80 -14.58,-13.24 -15.58,-12.91 -16.80,-12.80 -16.80,12.80 -14.58,13.24 -13.80,13.80 -13.24,14.58 -12.91,15.58">
        <request index="0"  response="00000000000111000000" foes="00000000000111000000" cont="0"/>
        <request index="1"  response="11111000000111000000" foes="11111100000111000000" cont="0"/>
        <request index="2"  response="11111000000111000000" foes="11111100000111000000" cont="0"/>
        <request index="3"  response="11111000000111000000" foes="11111100000111000000" cont="0"/>
        <request index="4"  response="10000011101111000000" foes="10000011101111000000" cont="0"/>
        <request index="5"  response="00000000000000000000" foes="00000011100000000000" cont="0"/>
        <request index="6"  response="00000000000000000000" foes="10000011100000011111" cont="0"/>
        <request index="7"  response="00000000000000000000" foes="10000011100000011111" cont="0"/>
        <request index="8"  response="00000000000000000000" foes="10000011100000011111" cont="0"/>
        <request index="9"  response="01110000000000000000" foes="01110111100000010000" cont="0"/>
        <request index="10" response="01110000000000000000" foes="01110000000000000000" cont="0"/>
        <request index="11" response="01110000001111100000" foes="01110000001111110000" cont="0"/>
        <request index="12" response="01110000001111100000" foes="01110000001111110000" cont="0"/>
        <request index="13" response="01110000001111100000" foes="01110000001111110000" cont="0"/>
        <request index="14" response="11110000001000001110" foes="11110000001000001110" cont="0"/>
        <request index="15" response="00000000000000000000" foes="00000000000000001110" cont="0"/>
        <request index="16" response="00000000000000000000" foes="00000111111000001110" cont="0"/>
        <request index="17" response="00000000000000000000" foes="00000111111000001110" cont="0"/>
        <request index="18" response="00000000000000000000" foes="00000111111000001110" cont="0"/>
        <request index="19" response="00000000000111000000" foes="00000100000111011110" cont="0"/>
    </junction>
    <junction id="NN" type="dead_end" x="0.00" y="750.00" incLanes="top_out_0 top_out_1 top_out_2 top_out_3" intLanes="" shape="0.00,750.00 12.80,750.00 0.00,750.00"/>
    <junction id="SN" type="dead_end" x="0.00" y="-750.00" incLanes="bottom_out_0 bottom_out_1 bottom_out_2 bottom_out_3" intLanes="" shape="0.00,-750.00 -12.80,-750.00 0.00,-750.00"/>
    <junction id="WN" type="dead_end" x="-750.00" y="0.00" incLanes="left_out_0 left_out_1 left_out_2 left_out_3" intLanes="" shape="-750.00,0.00 -750.00,12.80 -750.00,0.00"/>

    <connection from="bottom_in" to="right_out" fromLane="0" toLane="0" via=":MN_10_0" tl="TL" linkIndex="12" dir="r" state="o"/>
    <connection from="bottom_in" to="top_out" fromLane="0" toLane="0" via=":MN_11_0" tl="TL" linkIndex="13" dir="s" state="o"/>
    <connection from="bottom_in" to="top_out" fromLane="1" toLane="1" via=":MN_11_1" tl="TL" linkIndex="14" dir="s" state="o"/>
    <connection from="bottom_in" to="top_out" fromLane="2" toLane="2" via=":MN_11_2" tl="TL" linkIndex="15" dir="s" state="o"/>
    <connection from="bottom_in" to="left_out" fromLane="3" toLane="3" via=":MN_14_0" tl="TL" linkIndex="17" dir="l" state="o"/>
    <connection from="left_in" to="bottom_out" fromLane="0" toLane="0" via=":MN_15_0" tl="TL" linkIndex="18" dir="r" state="O"/>
    <connection from="left_in" to="right_out" fromLane="0" toLane="0" via=":MN_16_0" tl="TL" linkIndex="19" dir="s" state="O"/>
    <connection from="left_in" to="right_out" fromLane="1" toLane="1" via=":MN_16_1" tl="TL" linkIndex="20" dir="s" state="O"/>
    <connection from="left_in" to="right_out" fromLane="2" toLane="2" via=":MN_16_2" tl="TL" linkIndex="21" dir="s" state="O"/>
    <connection from="left_in" to="top_out" fromLane="3" toLane="3" via=":MN_19_0" tl="TL" linkIndex="23" dir="l" state="o"/>
    <connection from="right_in" to="top_out" fromLane="0" toLane="0" via=":MN_5_0" tl="TL" linkIndex="6" dir="r" state="O"/>
    <connection from="right_in" to="left_out" fromLane="0" toLane="0" via=":MN_6_0" tl="TL" linkIndex="7" dir="s" state="O"/>
    <connection from="right_in" to="left_out" fromLane="1" toLane="1" via=":MN_6_1" tl="TL" linkIndex="8" dir="s" state="O"/>
    <connection from="right_in" to="left_out" fromLane="2" toLane="2" via=":MN_6_2" tl="TL" linkIndex="9" dir="s" state="O"/>
    <connection from="right_in" to="bottom_out" fromLane="3" toLane="3" via=":MN_9_0" tl="TL" linkIndex="11" dir="l" state="o"/>
    <connection from="top_in" to="left_out" fromLane="0" toLane="0" via=":MN_0_0" tl="TL" linkIndex="0" dir="r" state="o"/>
    <connection from="top_in" to="bottom_out" fromLane="0" toLane="0" via=":MN_1_0" tl="TL" linkIndex="1" dir="s" state="o"/>
    <connection from="top_in" to="bottom_out" fromLane="1" toLane="1" via=":MN_1_1" tl="TL" linkIndex="2" dir="s" state="o"/>
    <connection from="top_in" to="bottom_out" fromLane="2" toLane="2" via=":MN_1_2" tl="TL" linkIndex="3" dir="s" state="o"/>
    <connection from="top_in" to="right_out" fromLane="3" toLane="3" via=":MN_4_0" tl="TL" linkIndex="5" dir="l" state="o"/>

    <connection from=":MN_0" to="left_out" fromLane="0" toLane="0" dir="r" state="M"/>
    <connection from=":MN_1" to="bottom_out" fromLane="0" toLane="0" dir="s" state="M"/>
    <connection from=":MN_1" to="bottom_out" fromLane="1" toLane="1" dir="s" state="M"/>
    <connection from=":MN_1" to="bottom_out" fromLane="2" toLane="2" dir="s" state="M"/>
    <connection from=":MN_4" to="right_out" fromLane="0" toLane="3" dir="l" state="M"/>
    <connection from=":MN_5" to="top_out" fromLane="0" toLane="0" dir="r" state="M"/>
    <connection from=":MN_6" to="left_out" fromLane="0" toLane="0" dir="s" state="M"/>
    <connection from=":MN_6" to="left_out" fromLane="1" toLane="1" dir="s" state="M"/>
    <connection from=":MN_6" to="left_out" fromLane="2" toLane="2" dir="s" state="M"/>
    <connection from=":MN_9" to="bottom_out" fromLane="0" toLane="3" dir="l" state="M"/>
    <connection from=":MN_10" to="right_out" fromLane="0" toLane="0" dir="r" state="M"/>
    <connection from=":MN_11" to="top_out" fromLane="0" toLane="0" dir="s" state="M"/>
    <connection from=":MN_11" to="top_out" fromLane="1" toLane="1" dir="s" state="M"/>
    <connection from=":MN_11" to="top_out" fromLane="2" toLane="2" dir="s" state="M"/>
    <connection from=":MN_14" to="left_out" fromLane="0" toLane="3" dir="l" state="M"/>
    <connection from=":MN_15" to="bottom_out" fromLane="0" toLane="0" dir="r" state="M"/>
    <connection from=":MN_16" to="right_out" fromLane="0" toLane="0" dir="s" state="M"/>
    <connection from=":MN_16" to="right_out" fromLane="1" toLane="1" dir="s" state="M"/>
    <connection from=":MN_16" to="right_out" fromLane="2" toLane="2" dir="s" state="M"/>
    <connection from=":MN_19" to="top_out" fromLane="0" toLane="3" dir="l" state="M"/>

</net>
