<routes>
    <vType accel="1.0" decel="4.5" id="standard_car" length="5.0" minGap="2.5" maxSpeed="60" sigma="0.5" />

    <route id="East_to_North" edges="right_in top_out"/>
    <route id="East_to_West" edges="right_in left_out"/>
    <route id="East_to_South" edges="right_in bottom_out"/>
    <route id="West_to_North" edges="left_in top_out"/>
    <route id="West_to_East" edges="left_in right_out"/>
    <route id="West_to_South" edges="left_in bottom_out"/>
    <route id="North_to_East" edges="top_in right_out"/>
    <route id="North_to_South" edges="top_in bottom_out"/>
    <route id="North_to_West" edges="top_in left_out"/>
    <route id="South_to_East" edges="bottom_in right_out"/>
    <route id="South_to_North" edges="bottom_in top_out"/>
    <route id="South_to_West" edges="bottom_in left_out"/>
           
    <vehicle id="W_E_0" type="standard_car" route="West_to_East" depart="1.0" departLane="random" departSpeed="max" />
    <vehicle id="W_N_1" type="standard_car" route="West_to_North" depart="1.0" departLane="random" departSpeed="max" />
    <vehicle id="N_E_2" type="standard_car" route="North_to_East" depart="1.0" departLane="random" departSpeed="max" />
    <vehicle id="N_E_3" type="standard_car" route="North_to_East" depart="2.0" departLane="random" departSpeed="max" />
    <vehicle id="N_W_4" type="standard_car" route="North_to_West" depart="2.0" departLane="random" departSpeed="max" />
    <vehicle id="E_W_5" type="standard_car" route="East_to_South" depart="2.0" departLane="random" departSpeed="max" />
    <vehicle id="N_S_6" type="standard_car" route="North_to_South" depart="2.0" departLane="random" departSpeed="max" />
    <vehicle id="E_N_7" type="standard_car" route="East_to_North" depart="2.0" departLane="random" departSpeed="max" />
    <vehicle id="S_E_8" type="standard_car" route="South_to_East" depart="2.0" departLane="random" departSpeed="max" />
    <vehicle id="S_N_9" type="standard_car" route="South_to_North" depart="2.0" departLane="random" departSpeed="max" />
    <vehicle id="S_E_10" type="standard_car" route="South_to_East" depart="2.0" departLane="random" departSpeed="max" />
    <vehicle id="W_E_11" type="standard_car" route="West_to_East" depart="2.0" departLane="random" departSpeed="max" />
    <vehicle id="N_W_12" type="standard_car" route="North_to_West" depart="2.0" departLane="random" departSpeed="max" />
    <vehicle id="N_S_13" type="standard_car" route="North_to_South" depart="2.0" departLane="random" departSpeed="max" />
    <vehicle id="S_N_14" type="standard_car" route="South_to_North" depart="3.0" departLane="random" departSpeed="max" />
    <vehicle id="N_S_15" type="standard_car" route="North_to_South" depart="3.0" departLane="random" departSpeed="max" />
    <vehicle id="E_W_16" type="standard_car" route="East_to_South" depart="3.0" departLane="random" departSpeed="max" />
    <vehicle id="W_S_17" type="standard_car" route="West_to_South" depart="3.0" departLane="random" departSpeed="max" />
    <vehicle id="E_W_18" type="standard_car" route="East_to_South" depart="3.0" departLane="random" departSpeed="max" />
    <vehicle id="N_S_19" type="standard_car" route="North_to_South" depart="3.0" departLane="random" departSpeed="max" />
    <vehicle id="N_S_20" type="standard_car" route="North_to_South" depart="3.0" departLane="random" departSpeed="max" />
    <vehicle id="S_N_21" type="standard_car" route="South_to_North" depart="3.0" departLane="random" departSpeed="max" />
    <vehicle id="W_E_22" type="standard_car" route="West_to_East" depart="3.0" departLane="random" departSpeed="max" />
    <vehicle id="W_N_23" type="standard_car" route="West_to_North" depart="3.0" departLane="random" departSpeed="max" />
    <vehicle id="N_S_24" type="standard_car" route="North_to_South" depart="3.0" departLane="random" departSpeed="max" />
    <vehicle id="N_S_25" type="standard_car" route="North_to_South" depart="3.0" departLane="random" departSpeed="max" />
    <vehicle id="E_W_26" type="standard_car" route="East_to_West" depart="3.0" departLane="random" departSpeed="max" />
    <vehicle id="W_E_27" type="standard_car" route="West_to_East" depart="3.0" departLane="random" departSpeed="max" />
    <vehicle id="W_E_28" type="standard_car" route="West_to_East" depart="3.0" departLane="random" departSpeed="max" />
    <vehicle id="E_W_29" type="standard_car" route="East_to_West" depart="3.0" departLane="random" departSpeed="max" />
    <vehicle id="N_W_30" type="standard_car" route="North_to_West" depart="3.0" departLane="random" departSpeed="max" />
    <vehicle id="N_S_31" type="standard_car" route="North_to_South" depart="3.0" departLane="random" departSpeed="max" />
    <vehicle id="N_W_32" type="standard_car" route="North_to_West" depart="4.0" departLane="random" departSpeed="max" />
    <vehicle id="E_W_33" type="standard_car" route="East_to_West" depart="4.0" departLane="random" departSpeed="max" />
    <vehicle id="S_N_34" type="standard_car" route="South_to_North" depart="4.0" departLane="random" departSpeed="max" />
    <vehicle id="W_N_35" type="standard_car" route="West_to_North" depart="4.0" departLane="random" departSpeed="max" />
    <vehicle id="W_S_36" type="standard_car" route="West_to_South" depart="4.0" departLane="random" departSpeed="max" />
    <vehicle id="E_W_37" type="standard_car" route="East_to_West" depart="4.0" departLane="random" departSpeed="max" />
    <vehicle id="E_W_38" type="standard_car" route="East_to_West" depart="4.0" departLane="random" departSpeed="max" />
    <vehicle id="S_N_39" type="standard_car" route="South_to_North" depart="4.0" departLane="random" departSpeed="max" />
    <vehicle id="S_E_40" type="standard_car" route="South_to_East" depart="4.0" departLane="random" departSpeed="max" />
    <vehicle id="W_E_41" type="standard_car" route="West_to_East" depart="4.0" departLane="random" departSpeed="max" />
    <vehicle id="N_S_42" type="standard_car" route="North_to_South" depart="4.0" departLane="random" departSpeed="max" />
    <vehicle id="E_W_43" type="standard_car" route="East_to_West" depart="4.0" departLane="random" departSpeed="max" />
    <vehicle id="N_S_44" type="standard_car" route="North_to_South" depart="4.0" departLane="random" departSpeed="max" />
    <vehicle id="S_N_45" type="standard_car" route="South_to_North" depart="4.0" departLane="random" departSpeed="max" />
    <vehicle id="S_N_46" type="standard_car" route="South_to_North" depart="4.0" departLane="random" departSpeed="max" />
    <vehicle id="N_E_47" type="standard_car" route="North_to_East" depart="4.0" departLane="random" departSpeed="max" />
    <vehicle id="E_W_48" type="standard_car" route="East_to_West" depart="4.0" departLane="random" departSpeed="max" />
    <vehicle id="S_E_49" type="standard_car" route="South_to_East" depart="4.0" departLane="random" departSpeed="max" />
    <vehicle id="E_W_50" type="standard_car" route="East_to_West" depart="4.0" departLane="random" departSpeed="max" />
    <vehicle id="S_N_51" type="standard_car" route="South_to_North" depart="4.0" departLane="random" departSpeed="max" />
    <vehicle id="W_E_52" type="standard_car" route="West_to_East" depart="4.0" departLane="random" departSpeed="max" />
    <vehicle id="N_E_53" type="standard_car" route="North_to_East" depart="4.0" departLane="random" departSpeed="max" />
    <vehicle id="W_E_54" type="standard_car" route="West_to_East" depart="5.0" departLane="random" departSpeed="max" />
    <vehicle id="S_E_55" type="standard_car" route="South_to_East" depart="5.0" departLane="random" departSpeed="max" />
    <vehicle id="W_N_56" type="standard_car" route="West_to_North" depart="5.0" departLane="random" departSpeed="max" />
    <vehicle id="E_W_57" type="standard_car" route="East_to_South" depart="5.0" departLane="random" departSpeed="max" />
    <vehicle id="S_N_58" type="standard_car" route="South_to_North" depart="5.0" departLane="random" departSpeed="max" />
    <vehicle id="S_N_59" type="standard_car" route="South_to_North" depart="5.0" departLane="random" departSpeed="max" />
    <vehicle id="S_E_60" type="standard_car" route="South_to_East" depart="5.0" departLane="random" departSpeed="max" />
    <vehicle id="N_S_61" type="standard_car" route="North_to_South" depart="5.0" departLane="random" departSpeed="max" />
    <vehicle id="W_E_62" type="standard_car" route="West_to_East" depart="5.0" departLane="random" departSpeed="max" />
    <vehicle id="E_W_63" type="standard_car" route="East_to_West" depart="5.0" departLane="random" departSpeed="max" />
    <vehicle id="E_W_64" type="standard_car" route="East_to_West" depart="5.0" departLane="random" departSpeed="max" />
    <vehicle id="S_W_65" type="standard_car" route="South_to_West" depart="5.0" departLane="random" departSpeed="max" />
    <vehicle id="E_W_66" type="standard_car" route="East_to_West" depart="5.0" departLane="random" departSpeed="max" />
    <vehicle id="S_E_67" type="standard_car" route="South_to_East" depart="5.0" departLane="random" departSpeed="max" />
    <vehicle id="W_N_68" type="standard_car" route="West_to_North" depart="5.0" departLane="random" departSpeed="max" />
    <vehicle id="E_W_69" type="standard_car" route="East_to_West" depart="5.0" departLane="random" departSpeed="max" />
    <vehicle id="W_E_70" type="standard_car" route="West_to_East" depart="5.0" departLane="random" departSpeed="max" />
    <vehicle id="W_E_71" type="standard_car" route="West_to_East" depart="5.0" departLane="random" departSpeed="max" />
    <vehicle id="S_W_72" type="standard_car" route="South_to_West" depart="5.0" departLane="random" departSpeed="max" />
    <vehicle id="W_N_73" type="standard_car" route="West_to_North" depart="5.0" departLane="random" departSpeed="max" />
    <vehicle id="S_N_74" type="standard_car" route="South_to_North" depart="6.0" departLane="random" departSpeed="max" />
    <vehicle id="E_N_75" type="standard_car" route="East_to_North" depart="6.0" departLane="random" departSpeed="max" />
    <vehicle id="W_E_76" type="standard_car" route="West_to_East" depart="6.0" departLane="random" departSpeed="max" />
    <vehicle id="W_N_77" type="standard_car" route="West_to_North" depart="6.0" departLane="random" departSpeed="max" />
    <vehicle id="W_N_78" type="standard_car" route="West_to_North" depart="6.0" departLane="random" departSpeed="max" />
    <vehicle id="E_W_79" type="standard_car" route="East_to_West" depart="6.0" departLane="random" departSpeed="max" />
    <vehicle id="E_N_80" type="standard_car" route="East_to_North" depart="6.0" departLane="random" departSpeed="max" />
    <vehicle id="E_W_81" type="standard_car" route="East_to_South" depart="6.0" departLane="random" departSpeed="max" />
    <vehicle id="S_W_82" type="standard_car" route="South_to_West" depart="6.0" departLane="random" departSpeed="max" />
    <vehicle id="W_N_83" type="standard_car" route="West_to_North" depart="6.0" departLane="random" departSpeed="max" />
    <vehicle id="S_N_84" type="standard_car" route="South_to_North" depart="6.0" departLane="random" departSpeed="max" />
    <vehicle id="W_E_85" type="standard_car" route="West_to_East" depart="6.0" departLane="random" departSpeed="max" />
    <vehicle id="E_W_86" type="standard_car" route="East_to_West" depart="6.0" departLane="random" departSpeed="max" />
    <vehicle id="W_E_87" type="standard_car" route="West_to_East" depart="6.0" departLane="random" departSpeed="max" />
    <vehicle id="S_N_88" type="standard_car" route="South_to_North" depart="6.0" departLane="random" departSpeed="max" />
    <vehicle id="S_N_89" type="standard_car" route="South_to_North" depart="6.0" departLane="random" departSpeed="max" />
    <vehicle id="E_W_90" type="standard_car" route="East_to_West" depart="6.0" departLane="random" departSpeed="max" />
    <vehicle id="E_W_91" type="standard_car" route="East_to_West" depart="6.0" departLane="random" departSpeed="max" />
    <vehicle id="E_W_92" type="standard_car" route="East_to_West" depart="6.0" departLane="random" departSpeed="max" />
    <vehicle id="W_N_93" type="standard_car" route="West_to_North" depart="6.0" departLane="random" departSpeed="max" />
    <vehicle id="W_E_94" type="standard_car" route="West_to_East" depart="6.0" departLane="random" departSpeed="max" />
    <vehicle id="E_W_95" type="standard_car" route="East_to_West" depart="6.0" departLane="random" departSpeed="max" />
    <vehicle id="W_E_96" type="standard_car" route="West_to_East" depart="6.0" departLane="random" departSpeed="max" />
    <vehicle id="S_N_97" type="standard_car" route="South_to_North" depart="6.0" departLane="random" departSpeed="max" />
    <vehicle id="E_N_98" type="standard_car" route="East_to_North" depart="6.0" departLane="random" departSpeed="max" />
    <vehicle id="S_N_99" type="standard_car" route="South_to_North" depart="6.0" departLane="random" departSpeed="max" />
    <vehicle id="W_N_100" type="standard_car" route="West_to_North" depart="6.0" departLane="random" departSpeed="max" />
    <vehicle id="E_W_101" type="standard_car" route="East_to_West" depart="6.0" departLane="random" departSpeed="max" />
    <vehicle id="S_E_102" type="standard_car" route="South_to_East" depart="6.0" departLane="random" departSpeed="max" />
    <vehicle id="W_S_103" type="standard_car" route="West_to_South" depart="6.0" departLane="random" departSpeed="max" />
    <vehicle id="N_S_104" type="standard_car" route="North_to_South" depart="6.0" departLane="random" departSpeed="max" />
    <vehicle id="E_N_105" type="standard_car" route="East_to_North" depart="6.0" departLane="random" departSpeed="max" />
    <vehicle id="N_S_106" type="standard_car" route="North_to_South" depart="6.0" departLane="random" departSpeed="max" />
    <vehicle id="S_N_107" type="standard_car" route="South_to_North" depart="6.0" departLane="random" departSpeed="max" />
    <vehicle id="W_E_108" type="standard_car" route="West_to_East" depart="7.0" departLane="random" departSpeed="max" />
    <vehicle id="E_W_109" type="standard_car" route="East_to_South" depart="7.0" departLane="random" departSpeed="max" />
    <vehicle id="N_W_110" type="standard_car" route="North_to_West" depart="7.0" departLane="random" departSpeed="max" />
    <vehicle id="W_S_111" type="standard_car" route="West_to_South" depart="7.0" departLane="random" departSpeed="max" />
    <vehicle id="S_N_112" type="standard_car" route="South_to_North" depart="7.0" departLane="random" departSpeed="max" />
    <vehicle id="N_S_113" type="standard_car" route="North_to_South" depart="7.0" departLane="random" departSpeed="max" />
    <vehicle id="E_N_114" type="standard_car" route="East_to_North" depart="7.0" departLane="random" departSpeed="max" />
    <vehicle id="W_E_115" type="standard_car" route="West_to_East" depart="7.0" departLane="random" departSpeed="max" />
    <vehicle id="S_W_116" type="standard_car" route="South_to_West" depart="7.0" departLane="random" departSpeed="max" />
    <vehicle id="S_W_117" type="standard_car" route="South_to_West" depart="7.0" departLane="random" departSpeed="max" />
    <vehicle id="W_E_118" type="standard_car" route="West_to_East" depart="7.0" departLane="random" departSpeed="max" />
    <vehicle id="E_W_119" type="standard_car" route="East_to_West" depart="7.0" departLane="random" departSpeed="max" />
    <vehicle id="S_E_120" type="standard_car" route="South_to_East" depart="7.0" departLane="random" departSpeed="max" />
    <vehicle id="N_S_121" type="standard_car" route="North_to_South" depart="7.0" departLane="random" departSpeed="max" />
    <vehicle id="N_E_122" type="standard_car" route="North_to_East" depart="7.0" departLane="random" departSpeed="max" />
    <vehicle id="W_S_123" type="standard_car" route="West_to_South" depart="7.0" departLane="random" departSpeed="max" />
    <vehicle id="E_W_124" type="standard_car" route="East_to_South" depart="7.0" departLane="random" departSpeed="max" />
    <vehicle id="S_W_125" type="standard_car" route="South_to_West" depart="7.0" departLane="random" departSpeed="max" />
    <vehicle id="N_W_126" type="standard_car" route="North_to_West" depart="7.0" departLane="random" departSpeed="max" />
    <vehicle id="N_W_127" type="standard_car" route="North_to_West" depart="7.0" departLane="random" departSpeed="max" />
    <vehicle id="W_E_128" type="standard_car" route="West_to_East" depart="7.0" departLane="random" departSpeed="max" />
    <vehicle id="W_E_129" type="standard_car" route="West_to_East" depart="7.0" departLane="random" departSpeed="max" />
    <vehicle id="S_W_130" type="standard_car" route="South_to_West" depart="7.0" departLane="random" departSpeed="max" />
    <vehicle id="W_S_131" type="standard_car" route="West_to_South" depart="7.0" departLane="random" departSpeed="max" />
    <vehicle id="W_N_132" type="standard_car" route="West_to_North" depart="7.0" departLane="random" departSpeed="max" />
    <vehicle id="S_N_133" type="standard_car" route="South_to_North" depart="7.0" departLane="random" departSpeed="max" />
    <vehicle id="N_S_134" type="standard_car" route="North_to_South" depart="7.0" departLane="random" departSpeed="max" />
    <vehicle id="S_E_135" type="standard_car" route="South_to_East" depart="7.0" departLane="random" departSpeed="max" />
    <vehicle id="N_S_136" type="standard_car" route="North_to_South" depart="7.0" departLane="random" departSpeed="max" />
    <vehicle id="N_S_137" type="standard_car" route="North_to_South" depart="7.0" departLane="random" departSpeed="max" />
    <vehicle id="W_E_138" type="standard_car" route="West_to_East" depart="7.0" departLane="random" departSpeed="max" />
    <vehicle id="S_N_139" type="standard_car" route="South_to_North" depart="7.0" departLane="random" departSpeed="max" />
    <vehicle id="E_W_140" type="standard_car" route="East_to_West" depart="7.0" departLane="random" departSpeed="max" />
    <vehicle id="S_E_141" type="standard_car" route="South_to_East" depart="7.0" departLane="random" departSpeed="max" />
    <vehicle id="N_E_142" type="standard_car" route="North_to_East" depart="7.0" departLane="random" departSpeed="max" />
    <vehicle id="S_N_143" type="standard_car" route="South_to_North" depart="7.0" departLane="random" departSpeed="max" />
    <vehicle id="W_E_144" type="standard_car" route="West_to_East" depart="7.0" departLane="random" departSpeed="max" />
    <vehicle id="N_S_145" type="standard_car" route="North_to_South" depart="7.0" departLane="random" departSpeed="max" />
    <vehicle id="E_W_146" type="standard_car" route="East_to_West" depart="8.0" departLane="random" departSpeed="max" />
    <vehicle id="S_W_147" type="standard_car" route="South_to_West" depart="8.0" departLane="random" departSpeed="max" />
    <vehicle id="E_W_148" type="standard_car" route="East_to_West" depart="8.0" departLane="random" departSpeed="max" />
    <vehicle id="N_E_149" type="standard_car" route="North_to_East" depart="8.0" departLane="random" departSpeed="max" />
    <vehicle id="N_W_150" type="standard_car" route="North_to_West" depart="8.0" departLane="random" departSpeed="max" />
    <vehicle id="N_E_151" type="standard_car" route="North_to_East" depart="8.0" departLane="random" departSpeed="max" />
    <vehicle id="E_N_152" type="standard_car" route="East_to_North" depart="8.0" departLane="random" departSpeed="max" />
    <vehicle id="W_E_153" type="standard_car" route="West_to_East" depart="8.0" departLane="random" departSpeed="max" />
    <vehicle id="E_W_154" type="standard_car" route="East_to_West" depart="8.0" departLane="random" departSpeed="max" />
    <vehicle id="E_W_155" type="standard_car" route="East_to_West" depart="8.0" departLane="random" departSpeed="max" />
    <vehicle id="W_S_156" type="standard_car" route="West_to_South" depart="8.0" departLane="random" departSpeed="max" />
    <vehicle id="S_N_157" type="standard_car" route="South_to_North" depart="8.0" departLane="random" departSpeed="max" />
    <vehicle id="S_N_158" type="standard_car" route="South_to_North" depart="8.0" departLane="random" departSpeed="max" />
    <vehicle id="E_W_159" type="standard_car" route="East_to_West" depart="8.0" departLane="random" departSpeed="max" />
    <vehicle id="N_E_160" type="standard_car" route="North_to_East" depart="8.0" departLane="random" departSpeed="max" />
    <vehicle id="N_S_161" type="standard_car" route="North_to_South" depart="8.0" departLane="random" departSpeed="max" />
    <vehicle id="W_S_162" type="standard_car" route="West_to_South" depart="8.0" departLane="random" departSpeed="max" />
    <vehicle id="E_W_163" type="standard_car" route="East_to_West" depart="8.0" departLane="random" departSpeed="max" />
    <vehicle id="E_W_164" type="standard_car" route="East_to_West" depart="8.0" departLane="random" departSpeed="max" />
    <vehicle id="E_W_165" type="standard_car" route="East_to_South" depart="8.0" departLane="random" departSpeed="max" />
    <vehicle id="N_W_166" type="standard_car" route="North_to_West" depart="8.0" departLane="random" departSpeed="max" />
    <vehicle id="W_E_167" type="standard_car" route="West_to_East" depart="8.0" departLane="random" departSpeed="max" />
    <vehicle id="E_W_168" type="standard_car" route="East_to_West" depart="8.0" departLane="random" departSpeed="max" />
    <vehicle id="W_S_169" type="standard_car" route="West_to_South" depart="8.0" departLane="random" departSpeed="max" />
    <vehicle id="W_E_170" type="standard_car" route="West_to_East" depart="8.0" departLane="random" departSpeed="max" />
    <vehicle id="S_N_171" type="standard_car" route="South_to_North" depart="8.0" departLane="random" departSpeed="max" />
    <vehicle id="W_E_172" type="standard_car" route="West_to_East" depart="8.0" departLane="random" departSpeed="max" />
    <vehicle id="W_E_173" type="standard_car" route="West_to_East" depart="8.0" departLane="random" departSpeed="max" />
    <vehicle id="W_N_174" type="standard_car" route="West_to_North" depart="8.0" departLane="random" departSpeed="max" />
    <vehicle id="E_N_175" type="standard_car" route="East_to_North" depart="8.0" departLane="random" departSpeed="max" />
    <vehicle id="W_E_176" type="standard_car" route="West_to_East" depart="8.0" departLane="random" departSpeed="max" />
    <vehicle id="E_W_177" type="standard_car" route="East_to_South" depart="8.0" departLane="random" departSpeed="max" />
    <vehicle id="N_S_178" type="standard_car" route="North_to_South" depart="8.0" departLane="random" departSpeed="max" />
    <vehicle id="W_N_179" type="standard_car" route="West_to_North" depart="8.0" departLane="random" departSpeed="max" />
    <vehicle id="E_N_180" type="standard_car" route="East_to_North" depart="8.0" departLane="random" departSpeed="max" />
    <vehicle id="E_N_181" type="standard_car" route="East_to_North" depart="8.0" departLane="random" departSpeed="max" />
    <vehicle id="W_E_182" type="standard_car" route="West_to_East" depart="8.0" departLane="random" departSpeed="max" />
    <vehicle id="E_N_183" type="standard_car" route="East_to_North" depart="8.0" departLane="random" departSpeed="max" />
    <vehicle id="E_W_184" type="standard_car" route="East_to_West" depart="8.0" departLane="random" departSpeed="max" />
    <vehicle id="N_S_185" type="standard_car" route="North_to_South" depart="8.0" departLane="random" departSpeed="max" />
    <vehicle id="W_E_186" type="standard_car" route="West_to_East" depart="9.0" departLane="random" departSpeed="max" />
    <vehicle id="E_W_187" type="standard_car" route="East_to_West" depart="9.0" departLane="random" departSpeed="max" />
    <vehicle id="S_N_188" type="standard_car" route="South_to_North" depart="9.0" departLane="random" departSpeed="max" />
    <vehicle id="E_N_189" type="standard_car" route="East_to_North" depart="9.0" departLane="random" departSpeed="max" />
    <vehicle id="E_W_190" type="standard_car" route="East_to_West" depart="9.0" departLane="random" departSpeed="max" />
    <vehicle id="N_W_191" type="standard_car" route="North_to_West" depart="9.0" departLane="random" departSpeed="max" />
    <vehicle id="S_N_192" type="standard_car" route="South_to_North" depart="9.0" departLane="random" departSpeed="max" />
    <vehicle id="N_S_193" type="standard_car" route="North_to_South" depart="9.0" departLane="random" departSpeed="max" />
    <vehicle id="N_S_194" type="standard_car" route="North_to_South" depart="9.0" departLane="random" departSpeed="max" />
    <vehicle id="W_E_195" type="standard_car" route="West_to_East" depart="9.0" departLane="random" departSpeed="max" />
    <vehicle id="E_W_196" type="standard_car" route="East_to_South" depart="9.0" departLane="random" departSpeed="max" />
    <vehicle id="S_N_197" type="standard_car" route="South_to_North" depart="9.0" departLane="random" departSpeed="max" />
    <vehicle id="N_S_198" type="standard_car" route="North_to_South" depart="9.0" departLane="random" departSpeed="max" />
    <vehicle id="N_S_199" type="standard_car" route="North_to_South" depart="9.0" departLane="random" departSpeed="max" />
    <vehicle id="W_E_200" type="standard_car" route="West_to_East" depart="9.0" departLane="random" departSpeed="max" />
    <vehicle id="S_E_201" type="standard_car" route="South_to_East" depart="9.0" departLane="random" departSpeed="max" />
    <vehicle id="W_E_202" type="standard_car" route="West_to_East" depart="9.0" departLane="random" departSpeed="max" />
    <vehicle id="S_W_203" type="standard_car" route="South_to_West" depart="9.0" departLane="random" departSpeed="max" />
    <vehicle id="N_W_204" type="standard_car" route="North_to_West" depart="9.0" departLane="random" departSpeed="max" />
    <vehicle id="S_E_205" type="standard_car" route="South_to_East" depart="9.0" departLane="random" departSpeed="max" />
    <vehicle id="S_E_206" type="standard_car" route="South_to_East" depart="9.0" departLane="random" departSpeed="max" />
    <vehicle id="S_W_207" type="standard_car" route="South_to_West" depart="9.0" departLane="random" departSpeed="max" />
    <vehicle id="W_E_208" type="standard_car" route="West_to_East" depart="9.0" departLane="random" departSpeed="max" />
    <vehicle id="S_E_209" type="standard_car" route="South_to_East" depart="9.0" departLane="random" departSpeed="max" />
    <vehicle id="E_N_210" type="standard_car" route="East_to_North" depart="9.0" departLane="random" departSpeed="max" />
    <vehicle id="W_E_211" type="standard_car" route="West_to_East" depart="9.0" departLane="random" departSpeed="max" />
    <vehicle id="W_E_212" type="standard_car" route="West_to_East" depart="9.0" departLane="random" departSpeed="max" />
    <vehicle id="S_N_213" type="standard_car" route="South_to_North" depart="9.0" departLane="random" departSpeed="max" />
    <vehicle id="E_W_214" type="standard_car" route="East_to_West" depart="9.0" departLane="random" departSpeed="max" />
    <vehicle id="W_N_215" type="standard_car" route="West_to_North" depart="9.0" departLane="random" departSpeed="max" />
    <vehicle id="W_S_216" type="standard_car" route="West_to_South" depart="9.0" departLane="random" departSpeed="max" />
    <vehicle id="N_E_217" type="standard_car" route="North_to_East" depart="9.0" departLane="random" departSpeed="max" />
    <vehicle id="S_E_218" type="standard_car" route="South_to_East" depart="9.0" departLane="random" departSpeed="max" />
    <vehicle id="S_N_219" type="standard_car" route="South_to_North" depart="9.0" departLane="random" departSpeed="max" />
    <vehicle id="W_E_220" type="standard_car" route="West_to_East" depart="9.0" departLane="random" departSpeed="max" />
    <vehicle id="N_E_221" type="standard_car" route="North_to_East" depart="9.0" departLane="random" departSpeed="max" />
    <vehicle id="E_N_222" type="standard_car" route="East_to_North" depart="9.0" departLane="random" departSpeed="max" />
    <vehicle id="S_N_223" type="standard_car" route="South_to_North" depart="9.0" departLane="random" departSpeed="max" />
    <vehicle id="N_S_224" type="standard_car" route="North_to_South" depart="9.0" departLane="random" departSpeed="max" />
    <vehicle id="W_E_225" type="standard_car" route="West_to_East" depart="9.0" departLane="random" departSpeed="max" />
    <vehicle id="E_W_226" type="standard_car" route="East_to_West" depart="10.0" departLane="random" departSpeed="max" />
    <vehicle id="E_N_227" type="standard_car" route="East_to_North" depart="10.0" departLane="random" departSpeed="max" />
    <vehicle id="S_E_228" type="standard_car" route="South_to_East" depart="10.0" departLane="random" departSpeed="max" />
    <vehicle id="S_N_229" type="standard_car" route="South_to_North" depart="10.0" departLane="random" departSpeed="max" />
    <vehicle id="S_N_230" type="standard_car" route="South_to_North" depart="10.0" departLane="random" departSpeed="max" />
    <vehicle id="N_W_231" type="standard_car" route="North_to_West" depart="10.0" departLane="random" departSpeed="max" />
    <vehicle id="S_W_232" type="standard_car" route="South_to_West" depart="10.0" departLane="random" departSpeed="max" />
    <vehicle id="N_S_233" type="standard_car" route="North_to_South" depart="10.0" departLane="random" departSpeed="max" />
    <vehicle id="S_N_234" type="standard_car" route="South_to_North" depart="10.0" departLane="random" departSpeed="max" />
    <vehicle id="W_E_235" type="standard_car" route="West_to_East" depart="10.0" departLane="random" departSpeed="max" />
    <vehicle id="W_E_236" type="standard_car" route="West_to_East" depart="10.0" departLane="random" departSpeed="max" />
    <vehicle id="S_N_237" type="standard_car" route="South_to_North" depart="10.0" departLane="random" departSpeed="max" />
    <vehicle id="W_E_238" type="standard_car" route="West_to_East" depart="10.0" departLane="random" departSpeed="max" />
    <vehicle id="E_W_239" type="standard_car" route="East_to_South" depart="10.0" departLane="random" departSpeed="max" />