<routes>
    <vType accel="0.8" id="standard_car" decel="4.5" length="5.0" minGap="2.5" maxSpeed="60" sigma="0.5" />

    <route id="East_to_North" edges="right_in top_out"/>
    <route id="East_to_West" edges="right_in left_out"/>
    <route id="East_to_South" edges="right_in bottom_out"/>
    <route id="West_to_North" edges="left_in top_out"/>
    <route id="West_to_East" edges="left_in right_out"/>
    <route id="West_to_South" edges="left_in bottom_out"/>
    <route id="North_to_East" edges="top_in right_out"/>
    <route id="North_to_South" edges="top_in bottom_out"/>
    <route id="North_to_West" edges="top_in left_out"/>
    <route id="South_to_East" edges="bottom_in right_out"/>
    <route id="South_to_North" edges="bottom_in top_out"/>
    <route id="South_to_West" edges="bottom_in left_out"/>
           
    <vehicle id="N_W_0" type="standard_car" route="North_to_West" depart="8.0" departLane="random" />
    <vehicle id="W_E_1" type="standard_car" route="West_to_East" depart="8.0" departLane="random" />
    <vehicle id="E_W_2" type="standard_car" route="East_to_South" depart="66.0" departLane="random" />
    <vehicle id="N_S_3" type="standard_car" route="North_to_South" depart="100.0" departLane="random" />
    <vehicle id="E_W_4" type="standard_car" route="East_to_West" depart="119.0" departLane="random" />
    <vehicle id="S_N_5" type="standard_car" route="South_to_North" depart="122.0" departLane="random"/>
    <vehicle id="E_W_6" type="standard_car" route="East_to_South" depart="122.0" departLane="random" />
    <vehicle id="W_N_7" type="standard_car" route="West_to_North" depart="146.0" departLane="random" />
    <vehicle id="S_N_8" type="standard_car" route="South_to_North" depart="149.0" departLane="random"/>
    <vehicle id="E_W_9" type="standard_car" route="East_to_West" depart="149.0" departLane="random" />
    <vehicle id="W_E_10" type="standard_car" route="West_to_East" depart="169.0" departLane="random" />
    <vehicle id="E_W_11" type="standard_car" route="East_to_South" depart="213.0" departLane="random" />
    <vehicle id="S_N_12" type="standard_car" route="South_to_North" depart="214.0" departLane="random"/>
    <vehicle id="N_S_13" type="standard_car" route="North_to_South" depart="219.0" departLane="random" />
    <vehicle id="N_S_14" type="standard_car" route="North_to_South" depart="222.0" departLane="random" />
    <vehicle id="N_W_15" type="standard_car" route="North_to_West" depart="225.0" departLane="random" />
    <vehicle id="S_N_16" type="standard_car" route="South_to_North" depart="227.0" departLane="random"/>
    <vehicle id="E_W_17" type="standard_car" route="East_to_West" depart="279.0" departLane="random" />
    <vehicle id="W_S_18" type="standard_car" route="West_to_South" depart="305.0" departLane="random" />
    <vehicle id="N_S_19" type="standard_car" route="North_to_South" depart="305.0" departLane="random" />
    <vehicle id="N_E_20" type="standard_car" route="North_to_East" depart="322.0" departLane="random" />
    <vehicle id="S_N_21" type="standard_car" route="South_to_North" depart="326.0" departLane="random"/>
    <vehicle id="N_E_22" type="standard_car" route="North_to_East" depart="326.0" departLane="random" />
    <vehicle id="N_W_23" type="standard_car" route="North_to_West" depart="342.0" departLane="random" />
    <vehicle id="N_S_24" type="standard_car" route="North_to_South" depart="347.0" departLane="random" />
    <vehicle id="E_W_25" type="standard_car" route="East_to_West" depart="353.0" departLane="random" />
    <vehicle id="S_E_26" type="standard_car" route="South_to_East" depart="356.0" departLane="random" />
    <vehicle id="S_N_27" type="standard_car" route="South_to_North" depart="361.0" departLane="random"/>
    <vehicle id="W_E_28" type="standard_car" route="West_to_East" depart="363.0" departLane="random" />
    <vehicle id="N_S_29" type="standard_car" route="North_to_South" depart="364.0" departLane="random" />
    <vehicle id="E_W_30" type="standard_car" route="East_to_West" depart="372.0" departLane="random" />
    <vehicle id="E_W_31" type="standard_car" route="East_to_West" depart="372.0" departLane="random" />
    <vehicle id="S_N_32" type="standard_car" route="South_to_North" depart="373.0" departLane="random"/>
    <vehicle id="N_S_33" type="standard_car" route="North_to_South" depart="379.0" departLane="random" />
    <vehicle id="E_W_34" type="standard_car" route="East_to_West" depart="380.0" departLane="random" />
    <vehicle id="S_W_35" type="standard_car" route="South_to_West" depart="390.0" departLane="random" />
    <vehicle id="W_E_36" type="standard_car" route="West_to_East" depart="394.0" departLane="random" />
    <vehicle id="S_N_37" type="standard_car" route="South_to_North" depart="400.0" departLane="random"/>
    <vehicle id="S_N_38" type="standard_car" route="South_to_North" depart="403.0" departLane="random"/>
    <vehicle id="S_N_39" type="standard_car" route="South_to_North" depart="404.0" departLane="random"/>
    <vehicle id="N_S_40" type="standard_car" route="North_to_South" depart="409.0" departLane="random" />
    <vehicle id="N_E_41" type="standard_car" route="North_to_East" depart="412.0" departLane="random" />
    <vehicle id="E_W_42" type="standard_car" route="East_to_West" depart="414.0" departLane="random" />
    <vehicle id="S_N_43" type="standard_car" route="South_to_North" depart="427.0" departLane="random"/>
    <vehicle id="W_E_44" type="standard_car" route="West_to_East" depart="442.0" departLane="random" />
    <vehicle id="N_S_45" type="standard_car" route="North_to_South" depart="443.0" departLane="random" />
    <vehicle id="S_E_46" type="standard_car" route="South_to_East" depart="459.0" departLane="random" />
    <vehicle id="S_W_47" type="standard_car" route="South_to_West" depart="461.0" departLane="random" />
    <vehicle id="E_W_48" type="standard_car" route="East_to_South" depart="463.0" departLane="random" />
    <vehicle id="E_W_49" type="standard_car" route="East_to_West" depart="469.0" departLane="random" />
    <vehicle id="W_E_50" type="standard_car" route="West_to_East" depart="470.0" departLane="random" />
    <vehicle id="E_W_51" type="standard_car" route="East_to_West" depart="472.0" departLane="random" />
    <vehicle id="N_S_52" type="standard_car" route="North_to_South" depart="480.0" departLane="random" />
    <vehicle id="N_E_53" type="standard_car" route="North_to_East" depart="502.0" departLane="random" />
    <vehicle id="W_E_54" type="standard_car" route="West_to_East" depart="507.0" departLane="random" />
    <vehicle id="W_S_55" type="standard_car" route="West_to_South" depart="508.0" departLane="random" />
    <vehicle id="S_N_56" type="standard_car" route="South_to_North" depart="509.0" departLane="random"/>
    <vehicle id="E_N_57" type="standard_car" route="East_to_North" depart="509.0" departLane="random" />
    <vehicle id="E_W_58" type="standard_car" route="East_to_West" depart="510.0" departLane="random" />
    <vehicle id="W_E_59" type="standard_car" route="West_to_East" depart="512.0" departLane="random" />
    <vehicle id="W_N_60" type="standard_car" route="West_to_North" depart="515.0" departLane="random" />
    <vehicle id="E_N_61" type="standard_car" route="East_to_North" depart="517.0" departLane="random" />
    <vehicle id="E_W_62" type="standard_car" route="East_to_West" depart="518.0" departLane="random" />
    <vehicle id="S_N_63" type="standard_car" route="South_to_North" depart="531.0" departLane="random"/>
    <vehicle id="E_W_64" type="standard_car" route="East_to_South" depart="533.0" departLane="random" />
    <vehicle id="W_S_65" type="standard_car" route="West_to_South" depart="541.0" departLane="random" />
    <vehicle id="E_W_66" type="standard_car" route="East_to_West" depart="548.0" departLane="random" />
    <vehicle id="E_W_67" type="standard_car" route="East_to_South" depart="551.0" departLane="random" />
    <vehicle id="W_N_68" type="standard_car" route="West_to_North" depart="561.0" departLane="random" />
    <vehicle id="N_S_69" type="standard_car" route="North_to_South" depart="564.0" departLane="random" />
    <vehicle id="N_W_70" type="standard_car" route="North_to_West" depart="569.0" departLane="random" />
    <vehicle id="S_E_71" type="standard_car" route="South_to_East" depart="571.0" departLane="random" />
    <vehicle id="N_S_72" type="standard_car" route="North_to_South" depart="575.0" departLane="random" />
    <vehicle id="W_E_73" type="standard_car" route="West_to_East" depart="575.0" departLane="random" />
    <vehicle id="N_W_74" type="standard_car" route="North_to_West" depart="581.0" departLane="random" />
    <vehicle id="N_S_75" type="standard_car" route="North_to_South" depart="582.0" departLane="random" />
    <vehicle id="E_N_76" type="standard_car" route="East_to_North" depart="585.0" departLane="random" />
    <vehicle id="E_W_77" type="standard_car" route="East_to_West" depart="588.0" departLane="random" />
    <vehicle id="S_N_78" type="standard_car" route="South_to_North" depart="588.0" departLane="random"/>
    <vehicle id="N_E_79" type="standard_car" route="North_to_East" depart="589.0" departLane="random" />
    <vehicle id="N_S_80" type="standard_car" route="North_to_South" depart="595.0" departLane="random" />
    <vehicle id="S_N_81" type="standard_car" route="South_to_North" depart="596.0" departLane="random"/>
    <vehicle id="S_N_82" type="standard_car" route="South_to_North" depart="597.0" departLane="random"/>
    <vehicle id="E_W_83" type="standard_car" route="East_to_West" depart="601.0" departLane="random" />
    <vehicle id="S_N_84" type="standard_car" route="South_to_North" depart="602.0" departLane="random"/>
    <vehicle id="E_W_85" type="standard_car" route="East_to_West" depart="602.0" departLane="random" />
    <vehicle id="N_S_86" type="standard_car" route="North_to_South" depart="602.0" departLane="random" />
    <vehicle id="W_E_87" type="standard_car" route="West_to_East" depart="604.0" departLane="random" />
    <vehicle id="N_S_88" type="standard_car" route="North_to_South" depart="606.0" departLane="random" />
    <vehicle id="N_S_89" type="standard_car" route="North_to_South" depart="611.0" departLane="random" />
    <vehicle id="N_S_90" type="standard_car" route="North_to_South" depart="614.0" departLane="random" />
    <vehicle id="W_E_91" type="standard_car" route="West_to_East" depart="615.0" departLane="random" />
    <vehicle id="N_S_92" type="standard_car" route="North_to_South" depart="619.0" departLane="random" />
    <vehicle id="E_W_93" type="standard_car" route="East_to_West" depart="622.0" departLane="random" />
    <vehicle id="E_W_94" type="standard_car" route="East_to_West" depart="622.0" departLane="random" />
    <vehicle id="W_E_95" type="standard_car" route="West_to_East" depart="626.0" departLane="random" />
    <vehicle id="S_N_96" type="standard_car" route="South_to_North" depart="627.0" departLane="random"/>
    <vehicle id="W_S_97" type="standard_car" route="West_to_South" depart="631.0" departLane="random" />
    <vehicle id="N_E_98" type="standard_car" route="North_to_East" depart="640.0" departLane="random" />
    <vehicle id="S_N_99" type="standard_car" route="South_to_North" depart="642.0" departLane="random"/>
    <vehicle id="S_N_100" type="standard_car" route="South_to_North" depart="643.0" departLane="random"/>
    <vehicle id="W_N_101" type="standard_car" route="West_to_North" depart="647.0" departLane="random" />
    <vehicle id="S_E_102" type="standard_car" route="South_to_East" depart="647.0" departLane="random" />
    <vehicle id="N_S_103" type="standard_car" route="North_to_South" depart="652.0" departLane="random" />
    <vehicle id="S_E_104" type="standard_car" route="South_to_East" depart="656.0" departLane="random" />
    <vehicle id="W_E_105" type="standard_car" route="West_to_East" depart="659.0" departLane="random" />
    <vehicle id="S_N_106" type="standard_car" route="South_to_North" depart="663.0" departLane="random"/>
    <vehicle id="E_W_107" type="standard_car" route="East_to_West" depart="664.0" departLane="random" />
    <vehicle id="E_W_108" type="standard_car" route="East_to_South" depart="666.0" departLane="random" />
    <vehicle id="N_E_109" type="standard_car" route="North_to_East" depart="678.0" departLane="random" />
    <vehicle id="W_S_110" type="standard_car" route="West_to_South" depart="679.0" departLane="random" />
    <vehicle id="S_E_111" type="standard_car" route="South_to_East" depart="680.0" departLane="random" />
    <vehicle id="N_S_112" type="standard_car" route="North_to_South" depart="681.0" departLane="random" />
    <vehicle id="N_S_113" type="standard_car" route="North_to_South" depart="684.0" departLane="random" />
    <vehicle id="W_E_114" type="standard_car" route="West_to_East" depart="686.0" departLane="random" />
    <vehicle id="S_W_115" type="standard_car" route="South_to_West" depart="686.0" departLane="random" />
    <vehicle id="E_W_116" type="standard_car" route="East_to_West" depart="687.0" departLane="random" />
    <vehicle id="W_E_117" type="standard_car" route="West_to_East" depart="687.0" departLane="random" />
    <vehicle id="N_S_118" type="standard_car" route="North_to_South" depart="695.0" departLane="random" />
    <vehicle id="W_E_119" type="standard_car" route="West_to_East" depart="707.0" departLane="random" />
    <vehicle id="N_S_120" type="standard_car" route="North_to_South" depart="710.0" departLane="random" />
    <vehicle id="W_E_121" type="standard_car" route="West_to_East" depart="710.0" departLane="random" />
    <vehicle id="N_S_122" type="standard_car" route="North_to_South" depart="713.0" departLane="random" />
    <vehicle id="S_W_123" type="standard_car" route="South_to_West" depart="715.0" departLane="random" />
    <vehicle id="N_S_124" type="standard_car" route="North_to_South" depart="715.0" departLane="random" />
    <vehicle id="E_W_125" type="standard_car" route="East_to_West" depart="716.0" departLane="random" />
    <vehicle id="W_N_126" type="standard_car" route="West_to_North" depart="717.0" departLane="random" />
    <vehicle id="S_N_127" type="standard_car" route="South_to_North" depart="717.0" departLane="random"/>
    <vehicle id="E_N_128" type="standard_car" route="East_to_North" depart="718.0" departLane="random" />
    <vehicle id="N_S_129" type="standard_car" route="North_to_South" depart="725.0" departLane="random" />
    <vehicle id="E_W_130" type="standard_car" route="East_to_West" depart="729.0" departLane="random" />
    <vehicle id="N_S_131" type="standard_car" route="North_to_South" depart="731.0" departLane="random" />
    <vehicle id="W_E_132" type="standard_car" route="West_to_East" depart="731.0" departLane="random" />
    <vehicle id="S_N_133" type="standard_car" route="South_to_North" depart="734.0" departLane="random"/>
    <vehicle id="N_W_134" type="standard_car" route="North_to_West" depart="735.0" departLane="random" />
    <vehicle id="E_W_135" type="standard_car" route="East_to_South" depart="736.0" departLane="random" />
    <vehicle id="N_S_136" type="standard_car" route="North_to_South" depart="737.0" departLane="random" />
    <vehicle id="N_E_137" type="standard_car" route="North_to_East" depart="738.0" departLane="random" />
    <vehicle id="E_W_138" type="standard_car" route="East_to_West" depart="746.0" departLane="random" />
    <vehicle id="N_S_139" type="standard_car" route="North_to_South" depart="747.0" departLane="random" />
    <vehicle id="E_W_140" type="standard_car" route="East_to_West" depart="748.0" departLane="random" />
    <vehicle id="N_S_141" type="standard_car" route="North_to_South" depart="750.0" departLane="random" />
    <vehicle id="E_W_142" type="standard_car" route="East_to_West" depart="752.0" departLane="random" />
    <vehicle id="N_S_143" type="standard_car" route="North_to_South" depart="754.0" departLane="random" />
    <vehicle id="S_E_144" type="standard_car" route="South_to_East" depart="755.0" departLane="random" />
    <vehicle id="S_W_145" type="standard_car" route="South_to_West" depart="757.0" departLane="random" />
    <vehicle id="W_E_146" type="standard_car" route="West_to_East" depart="757.0" departLane="random" />
    <vehicle id="W_E_147" type="standard_car" route="West_to_East" depart="757.0" departLane="random" />
    <vehicle id="W_S_148" type="standard_car" route="West_to_South" depart="758.0" departLane="random" />
    <vehicle id="S_W_149" type="standard_car" route="South_to_West" depart="760.0" departLane="random" />
    <vehicle id="E_W_150" type="standard_car" route="East_to_West" depart="763.0" departLane="random" />
    <vehicle id="S_W_151" type="standard_car" route="South_to_West" depart="765.0" departLane="random" />
    <vehicle id="E_N_152" type="standard_car" route="East_to_North" depart="767.0" departLane="random" />
    <vehicle id="S_E_153" type="standard_car" route="South_to_East" depart="767.0" departLane="random" />
    <vehicle id="N_E_154" type="standard_car" route="North_to_East" depart="771.0" departLane="random" />
    <vehicle id="W_S_155" type="standard_car" route="West_to_South" depart="772.0" departLane="random" />
    <vehicle id="E_W_156" type="standard_car" route="East_to_West" depart="779.0" departLane="random" />
    <vehicle id="S_E_157" type="standard_car" route="South_to_East" depart="787.0" departLane="random" />
    <vehicle id="E_W_158" type="standard_car" route="East_to_South" depart="787.0" departLane="random" />
    <vehicle id="E_W_159" type="standard_car" route="East_to_South" depart="791.0" departLane="random" />
    <vehicle id="W_N_160" type="standard_car" route="West_to_North" depart="791.0" departLane="random" />
    <vehicle id="E_W_161" type="standard_car" route="East_to_West" depart="791.0" departLane="random" />
    <vehicle id="W_E_162" type="standard_car" route="West_to_East" depart="791.0" departLane="random" />
    <vehicle id="E_W_163" type="standard_car" route="East_to_South" depart="803.0" departLane="random" />
    <vehicle id="E_W_164" type="standard_car" route="East_to_West" depart="815.0" departLane="random" />
    <vehicle id="N_W_165" type="standard_car" route="North_to_West" depart="819.0" departLane="random" />
    <vehicle id="N_S_166" type="standard_car" route="North_to_South" depart="820.0" departLane="random" />
    <vehicle id="N_S_167" type="standard_car" route="North_to_South" depart="826.0" departLane="random" />
    <vehicle id="S_N_168" type="standard_car" route="South_to_North" depart="826.0" departLane="random"/>
    <vehicle id="W_E_169" type="standard_car" route="West_to_East" depart="828.0" departLane="random" />
    <vehicle id="E_W_170" type="standard_car" route="East_to_West" depart="829.0" departLane="random" />
    <vehicle id="W_E_171" type="standard_car" route="West_to_East" depart="832.0" departLane="random" />
    <vehicle id="N_S_172" type="standard_car" route="North_to_South" depart="834.0" departLane="random" />
    <vehicle id="E_W_173" type="standard_car" route="East_to_West" depart="834.0" departLane="random" />
    <vehicle id="N_W_174" type="standard_car" route="North_to_West" depart="839.0" departLane="random" />
    <vehicle id="N_S_175" type="standard_car" route="North_to_South" depart="846.0" departLane="random" />
    <vehicle id="S_N_176" type="standard_car" route="South_to_North" depart="848.0" departLane="random"/>
    <vehicle id="N_E_177" type="standard_car" route="North_to_East" depart="849.0" departLane="random" />
    <vehicle id="N_S_178" type="standard_car" route="North_to_South" depart="852.0" departLane="random" />
    <vehicle id="E_W_179" type="standard_car" route="East_to_South" depart="853.0" departLane="random" />
    <vehicle id="W_E_180" type="standard_car" route="West_to_East" depart="859.0" departLane="random" />
    <vehicle id="E_W_181" type="standard_car" route="East_to_West" depart="861.0" departLane="random" />
    <vehicle id="W_N_182" type="standard_car" route="West_to_North" depart="862.0" departLane="random" />
    <vehicle id="N_S_183" type="standard_car" route="North_to_South" depart="862.0" departLane="random" />
    <vehicle id="N_S_184" type="standard_car" route="North_to_South" depart="863.0" departLane="random" />
    <vehicle id="S_N_185" type="standard_car" route="South_to_North" depart="863.0" departLane="random"/>
    <vehicle id="N_W_186" type="standard_car" route="North_to_West" depart="865.0" departLane="random" />
    <vehicle id="S_N_187" type="standard_car" route="South_to_North" depart="869.0" departLane="random"/>
    <vehicle id="E_W_188" type="standard_car" route="East_to_West" depart="878.0" departLane="random" />
    <vehicle id="E_W_189" type="standard_car" route="East_to_West" depart="878.0" departLane="random" />
    <vehicle id="N_W_190" type="standard_car" route="North_to_West" depart="879.0" departLane="random" />
    <vehicle id="S_N_191" type="standard_car" route="South_to_North" depart="879.0" departLane="random"/>
    <vehicle id="N_S_192" type="standard_car" route="North_to_South" depart="889.0" departLane="random" />
    <vehicle id="N_S_193" type="standard_car" route="North_to_South" depart="889.0" departLane="random" />
    <vehicle id="E_W_194" type="standard_car" route="East_to_South" depart="891.0" departLane="random" />
    <vehicle id="S_E_195" type="standard_car" route="South_to_East" depart="893.0" departLane="random" />
    <vehicle id="N_S_196" type="standard_car" route="North_to_South" depart="894.0" departLane="random" />
    <vehicle id="E_W_197" type="standard_car" route="East_to_West" depart="901.0" departLane="random" />
    <vehicle id="W_S_198" type="standard_car" route="West_to_South" depart="902.0" departLane="random" />
    <vehicle id="E_W_199" type="standard_car" route="East_to_West" depart="902.0" departLane="random" />
    <vehicle id="S_N_200" type="standard_car" route="South_to_North" depart="902.0" departLane="random"/>
    <vehicle id="N_S_201" type="standard_car" route="North_to_South" depart="904.0" departLane="random" />
    <vehicle id="W_E_202" type="standard_car" route="West_to_East" depart="920.0" departLane="random" />
    <vehicle id="N_W_203" type="standard_car" route="North_to_West" depart="922.0" departLane="random" />
    <vehicle id="W_E_204" type="standard_car" route="West_to_East" depart="922.0" departLane="random" />
    <vehicle id="W_E_205" type="standard_car" route="West_to_East" depart="924.0" departLane="random" />
    <vehicle id="E_W_206" type="standard_car" route="East_to_South" depart="924.0" departLane="random" />
    <vehicle id="S_N_207" type="standard_car" route="South_to_North" depart="927.0" departLane="random"/>
    <vehicle id="S_W_208" type="standard_car" route="South_to_West" depart="931.0" departLane="random" />
    <vehicle id="W_E_209" type="standard_car" route="West_to_East" depart="931.0" departLane="random" />
    <vehicle id="S_W_210" type="standard_car" route="South_to_West" depart="932.0" departLane="random" />
    <vehicle id="W_E_211" type="standard_car" route="West_to_East" depart="932.0" departLane="random" />
    <vehicle id="S_N_212" type="standard_car" route="South_to_North" depart="933.0" departLane="random"/>
    <vehicle id="N_S_213" type="standard_car" route="North_to_South" depart="935.0" departLane="random" />
    <vehicle id="W_E_214" type="standard_car" route="West_to_East" depart="936.0" departLane="random" />
    <vehicle id="S_E_215" type="standard_car" route="South_to_East" depart="936.0" departLane="random" />
    <vehicle id="S_E_216" type="standard_car" route="South_to_East" depart="937.0" departLane="random" />
    <vehicle id="E_N_217" type="standard_car" route="East_to_North" depart="941.0" departLane="random" />
    <vehicle id="W_E_218" type="standard_car" route="West_to_East" depart="942.0" departLane="random" />
    <vehicle id="E_W_219" type="standard_car" route="East_to_West" depart="948.0" departLane="random" />
    <vehicle id="E_W_220" type="standard_car" route="East_to_West" depart="951.0" departLane="random" />
    <vehicle id="S_N_221" type="standard_car" route="South_to_North" depart="954.0" departLane="random"/>
    <vehicle id="E_W_222" type="standard_car" route="East_to_West" depart="957.0" departLane="random" />
    <vehicle id="N_S_223" type="standard_car" route="North_to_South" depart="962.0" departLane="random" />
    <vehicle id="E_N_224" type="standard_car" route="East_to_North" depart="963.0" departLane="random" />
    <vehicle id="E_W_225" type="standard_car" route="East_to_West" depart="964.0" departLane="random" />
    <vehicle id="N_S_226" type="standard_car" route="North_to_South" depart="967.0" departLane="random" />
    <vehicle id="S_W_227" type="standard_car" route="South_to_West" depart="970.0" departLane="random" />
    <vehicle id="E_W_228" type="standard_car" route="East_to_West" depart="971.0" departLane="random" />
    <vehicle id="W_S_229" type="standard_car" route="West_to_South" depart="971.0" departLane="random" />
    <vehicle id="E_W_230" type="standard_car" route="East_to_West" depart="971.0" departLane="random" />
    <vehicle id="S_N_231" type="standard_car" route="South_to_North" depart="971.0" departLane="random"/>
    <vehicle id="W_E_232" type="standard_car" route="West_to_East" depart="975.0" departLane="random" />
    <vehicle id="E_W_233" type="standard_car" route="East_to_West" depart="978.0" departLane="random" />
    <vehicle id="S_N_234" type="standard_car" route="South_to_North" depart="979.0" departLane="random"/>
    <vehicle id="W_E_235" type="standard_car" route="West_to_East" depart="983.0" departLane="random" />
    <vehicle id="W_E_236" type="standard_car" route="West_to_East" depart="985.0" departLane="random" />
    <vehicle id="S_N_237" type="standard_car" route="South_to_North" depart="987.0" departLane="random"/>
    <vehicle id="N_E_238" type="standard_car" route="North_to_East" depart="992.0" departLane="random" />
    <vehicle id="E_W_239" type="standard_car" route="East_to_West" depart="992.0" departLane="random" />
    <vehicle id="S_E_240" type="standard_car" route="South_to_East" depart="993.0" departLane="random" />
    <vehicle id="S_E_241" type="standard_car" route="South_to_East" depart="996.0" departLane="random" />
    <vehicle id="S_N_242" type="standard_car" route="South_to_North" depart="997.0" departLane="random"/>
    <vehicle id="E_N_243" type="standard_car" route="East_to_North" depart="998.0" departLane="random" />
    <vehicle id="W_E_244" type="standard_car" route="West_to_East" depart="998.0" departLane="random" />
    <vehicle id="S_W_245" type="standard_car" route="South_to_West" depart="1005.0" departLane="random" />
    <vehicle id="S_W_246" type="standard_car" route="South_to_West" depart="1008.0" departLane="random" />
    <vehicle id="E_N_247" type="standard_car" route="East_to_North" depart="1010.0" departLane="random" />
    <vehicle id="S_N_248" type="standard_car" route="South_to_North" depart="1015.0" departLane="random"/>
    <vehicle id="S_N_249" type="standard_car" route="South_to_North" depart="1016.0" departLane="random"/>
    <vehicle id="W_S_250" type="standard_car" route="West_to_South" depart="1016.0" departLane="random" />
    <vehicle id="N_W_251" type="standard_car" route="North_to_West" depart="1017.0" departLane="random" />
    <vehicle id="S_N_252" type="standard_car" route="South_to_North" depart="1017.0" departLane="random"/>
    <vehicle id="N_S_253" type="standard_car" route="North_to_South" depart="1017.0" departLane="random" />
    <vehicle id="N_S_254" type="standard_car" route="North_to_South" depart="1025.0" departLane="random" />
    <vehicle id="W_E_255" type="standard_car" route="West_to_East" depart="1025.0" departLane="random" />
    <vehicle id="E_W_256" type="standard_car" route="East_to_West" depart="1026.0" departLane="random" />
    <vehicle id="E_W_257" type="standard_car" route="East_to_South" depart="1027.0" departLane="random" />
    <vehicle id="N_S_258" type="standard_car" route="North_to_South" depart="1028.0" departLane="random" />
    <vehicle id="E_W_259" type="standard_car" route="East_to_West" depart="1034.0" departLane="random" />
    <vehicle id="S_E_260" type="standard_car" route="South_to_East" depart="1040.0" departLane="random" />
    <vehicle id="N_S_261" type="standard_car" route="North_to_South" depart="1044.0" departLane="random" />
    <vehicle id="E_N_262" type="standard_car" route="East_to_North" depart="1044.0" departLane="random" />
    <vehicle id="N_S_263" type="standard_car" route="North_to_South" depart="1044.0" departLane="random" />
    <vehicle id="E_W_264" type="standard_car" route="East_to_West" depart="1049.0" departLane="random" />
    <vehicle id="W_S_265" type="standard_car" route="West_to_South" depart="1053.0" departLane="random" />
    <vehicle id="S_N_266" type="standard_car" route="South_to_North" depart="1053.0" departLane="random"/>
    <vehicle id="E_W_267" type="standard_car" route="East_to_West" depart="1055.0" departLane="random" />
    <vehicle id="N_S_268" type="standard_car" route="North_to_South" depart="1055.0" departLane="random" />
    <vehicle id="E_W_269" type="standard_car" route="East_to_West" depart="1055.0" departLane="random" />
    <vehicle id="E_W_270" type="standard_car" route="East_to_South" depart="1058.0" departLane="random" />
    <vehicle id="N_S_271" type="standard_car" route="North_to_South" depart="1058.0" departLane="random" />
    <vehicle id="W_E_272" type="standard_car" route="West_to_East" depart="1058.0" departLane="random" />
    <vehicle id="W_E_273" type="standard_car" route="West_to_East" depart="1060.0" departLane="random" />
    <vehicle id="E_W_274" type="standard_car" route="East_to_South" depart="1060.0" departLane="random" />
    <vehicle id="W_S_275" type="standard_car" route="West_to_South" depart="1061.0" departLane="random" />