<routes>
    <vType accel="1.0" decel="4.5" id="standard_car" length="5.0" minGap="2.5" maxSpeed="60" sigma="0.5" />

    <route id="East_to_North" edges="right_in top_out"/>
    <route id="East_to_West" edges="right_in left_out"/>
    <route id="East_to_South" edges="right_in bottom_out"/>
    <route id="West_to_North" edges="left_in top_out"/>
    <route id="West_to_East" edges="left_in right_out"/>
    <route id="West_to_South" edges="left_in bottom_out"/>
    <route id="North_to_East" edges="top_in right_out"/>
    <route id="North_to_South" edges="top_in bottom_out"/>
    <route id="North_to_West" edges="top_in left_out"/>
    <route id="South_to_East" edges="bottom_in right_out"/>
    <route id="South_to_North" edges="bottom_in top_out"/>
    <route id="South_to_West" edges="bottom_in left_out"/>
           
    <vehicle id="S_E_0" type="standard_car" route="South_to_East" depart="1.0" departLane="random" departSpeed="max" />
    <vehicle id="N_E_1" type="standard_car" route="North_to_East" depart="1.0" departLane="random" departSpeed="max" />
    <vehicle id="W_E_2" type="standard_car" route="West_to_East" depart="1.0" departLane="random" departSpeed="max" />
    <vehicle id="S_N_3" type="standard_car" route="South_to_North" depart="1.0" departLane="random" departSpeed="max" />
    <vehicle id="N_E_4" type="standard_car" route="North_to_East" depart="1.0" departLane="random" departSpeed="max" />
    <vehicle id="N_S_5" type="standard_car" route="North_to_South" depart="1.0" departLane="random" departSpeed="max" />
    <vehicle id="W_E_6" type="standard_car" route="West_to_East" depart="1.0" departLane="random" departSpeed="max" />
    <vehicle id="W_S_7" type="standard_car" route="West_to_South" depart="2.0" departLane="random" departSpeed="max" />
    <vehicle id="E_W_8" type="standard_car" route="East_to_West" depart="2.0" departLane="random" departSpeed="max" />
    <vehicle id="W_E_9" type="standard_car" route="West_to_East" depart="2.0" departLane="random" departSpeed="max" />
    <vehicle id="E_W_10" type="standard_car" route="East_to_West" depart="2.0" departLane="random" departSpeed="max" />
    <vehicle id="W_E_11" type="standard_car" route="West_to_East" depart="2.0" departLane="random" departSpeed="max" />
    <vehicle id="N_S_12" type="standard_car" route="North_to_South" depart="2.0" departLane="random" departSpeed="max" />
    <vehicle id="E_W_13" type="standard_car" route="East_to_West" depart="2.0" departLane="random" departSpeed="max" />
    <vehicle id="E_W_14" type="standard_car" route="East_to_West" depart="2.0" departLane="random" departSpeed="max" />
    <vehicle id="N_E_15" type="standard_car" route="North_to_East" depart="3.0" departLane="random" departSpeed="max" />
    <vehicle id="N_E_16" type="standard_car" route="North_to_East" depart="3.0" departLane="random" departSpeed="max" />
    <vehicle id="N_S_17" type="standard_car" route="North_to_South" depart="3.0" departLane="random" departSpeed="max" />
    <vehicle id="S_N_18" type="standard_car" route="South_to_North" depart="3.0" departLane="random" departSpeed="max" />
    <vehicle id="E_N_19" type="standard_car" route="East_to_North" depart="3.0" departLane="random" departSpeed="max" />
    <vehicle id="S_E_20" type="standard_car" route="South_to_East" depart="3.0" departLane="random" departSpeed="max" />
    <vehicle id="W_S_21" type="standard_car" route="West_to_South" depart="3.0" departLane="random" departSpeed="max" />
    <vehicle id="E_W_22" type="standard_car" route="East_to_West" depart="3.0" departLane="random" departSpeed="max" />
    <vehicle id="E_W_23" type="standard_car" route="East_to_South" depart="3.0" departLane="random" departSpeed="max" />
    <vehicle id="S_E_24" type="standard_car" route="South_to_East" depart="3.0" departLane="random" departSpeed="max" />
    <vehicle id="E_W_25" type="standard_car" route="East_to_West" depart="3.0" departLane="random" departSpeed="max" />
    <vehicle id="S_N_26" type="standard_car" route="South_to_North" depart="3.0" departLane="random" departSpeed="max" />
    <vehicle id="N_W_27" type="standard_car" route="North_to_West" depart="3.0" departLane="random" departSpeed="max" />
    <vehicle id="S_W_28" type="standard_car" route="South_to_West" depart="3.0" departLane="random" departSpeed="max" />
    <vehicle id="S_N_29" type="standard_car" route="South_to_North" depart="3.0" departLane="random" departSpeed="max" />
    <vehicle id="E_W_30" type="standard_car" route="East_to_West" depart="3.0" departLane="random" departSpeed="max" />
    <vehicle id="N_W_31" type="standard_car" route="North_to_West" depart="3.0" departLane="random" departSpeed="max" />
    <vehicle id="N_S_32" type="standard_car" route="North_to_South" depart="3.0" departLane="random" departSpeed="max" />
    <vehicle id="S_N_33" type="standard_car" route="South_to_North" depart="4.0" departLane="random" departSpeed="max" />
    <vehicle id="N_S_34" type="standard_car" route="North_to_South" depart="4.0" departLane="random" departSpeed="max" />
    <vehicle id="E_W_35" type="standard_car" route="East_to_West" depart="4.0" departLane="random" departSpeed="max" />
    <vehicle id="N_W_36" type="standard_car" route="North_to_West" depart="4.0" departLane="random" departSpeed="max" />
    <vehicle id="E_W_37" type="standard_car" route="East_to_West" depart="4.0" departLane="random" departSpeed="max" />
    <vehicle id="S_N_38" type="standard_car" route="South_to_North" depart="4.0" departLane="random" departSpeed="max" />
    <vehicle id="E_N_39" type="standard_car" route="East_to_North" depart="4.0" departLane="random" departSpeed="max" />
    <vehicle id="W_E_40" type="standard_car" route="West_to_East" depart="4.0" departLane="random" departSpeed="max" />
    <vehicle id="S_W_41" type="standard_car" route="South_to_West" depart="4.0" departLane="random" departSpeed="max" />
    <vehicle id="S_N_42" type="standard_car" route="South_to_North" depart="4.0" departLane="random" departSpeed="max" />
    <vehicle id="S_W_43" type="standard_car" route="South_to_West" depart="4.0" departLane="random" departSpeed="max" />
    <vehicle id="W_E_44" type="standard_car" route="West_to_East" depart="4.0" departLane="random" departSpeed="max" />
    <vehicle id="E_W_45" type="standard_car" route="East_to_West" depart="4.0" departLane="random" departSpeed="max" />
    <vehicle id="S_N_46" type="standard_car" route="South_to_North" depart="4.0" departLane="random" departSpeed="max" />
    <vehicle id="N_S_47" type="standard_car" route="North_to_South" depart="4.0" departLane="random" departSpeed="max" />
    <vehicle id="N_S_48" type="standard_car" route="North_to_South" depart="4.0" departLane="random" departSpeed="max" />
    <vehicle id="E_W_49" type="standard_car" route="East_to_South" depart="4.0" departLane="random" departSpeed="max" />
    <vehicle id="E_W_50" type="standard_car" route="East_to_West" depart="4.0" departLane="random" departSpeed="max" />
    <vehicle id="E_W_51" type="standard_car" route="East_to_West" depart="4.0" departLane="random" departSpeed="max" />
    <vehicle id="N_S_52" type="standard_car" route="North_to_South" depart="4.0" departLane="random" departSpeed="max" />
    <vehicle id="E_W_53" type="standard_car" route="East_to_West" depart="4.0" departLane="random" departSpeed="max" />
    <vehicle id="N_S_54" type="standard_car" route="North_to_South" depart="5.0" departLane="random" departSpeed="max" />
    <vehicle id="E_W_55" type="standard_car" route="East_to_West" depart="5.0" departLane="random" departSpeed="max" />
    <vehicle id="S_W_56" type="standard_car" route="South_to_West" depart="5.0" departLane="random" departSpeed="max" />
    <vehicle id="S_N_57" type="standard_car" route="South_to_North" depart="5.0" departLane="random" departSpeed="max" />
    <vehicle id="N_E_58" type="standard_car" route="North_to_East" depart="5.0" departLane="random" departSpeed="max" />
    <vehicle id="W_E_59" type="standard_car" route="West_to_East" depart="5.0" departLane="random" departSpeed="max" />
    <vehicle id="W_E_60" type="standard_car" route="West_to_East" depart="5.0" departLane="random" departSpeed="max" />
    <vehicle id="N_S_61" type="standard_car" route="North_to_South" depart="5.0" departLane="random" departSpeed="max" />
    <vehicle id="N_S_62" type="standard_car" route="North_to_South" depart="5.0" departLane="random" departSpeed="max" />
    <vehicle id="W_S_63" type="standard_car" route="West_to_South" depart="5.0" departLane="random" departSpeed="max" />
    <vehicle id="W_E_64" type="standard_car" route="West_to_East" depart="5.0" departLane="random" departSpeed="max" />
    <vehicle id="S_E_65" type="standard_car" route="South_to_East" depart="5.0" departLane="random" departSpeed="max" />
    <vehicle id="N_S_66" type="standard_car" route="North_to_South" depart="5.0" departLane="random" departSpeed="max" />
    <vehicle id="S_E_67" type="standard_car" route="South_to_East" depart="5.0" departLane="random" departSpeed="max" />
    <vehicle id="S_N_68" type="standard_car" route="South_to_North" depart="5.0" departLane="random" departSpeed="max" />
    <vehicle id="W_E_69" type="standard_car" route="West_to_East" depart="5.0" departLane="random" departSpeed="max" />
    <vehicle id="S_E_70" type="standard_car" route="South_to_East" depart="5.0" departLane="random" departSpeed="max" />
    <vehicle id="N_S_71" type="standard_car" route="North_to_South" depart="5.0" departLane="random" departSpeed="max" />
    <vehicle id="E_N_72" type="standard_car" route="East_to_North" depart="5.0" departLane="random" departSpeed="max" />
    <vehicle id="S_E_73" type="standard_car" route="South_to_East" depart="5.0" departLane="random" departSpeed="max" />
    <vehicle id="S_N_74" type="standard_car" route="South_to_North" depart="5.0" departLane="random" departSpeed="max" />
    <vehicle id="S_N_75" type="standard_car" route="South_to_North" depart="5.0" departLane="random" departSpeed="max" />
    <vehicle id="W_E_76" type="standard_car" route="West_to_East" depart="5.0" departLane="random" departSpeed="max" />
    <vehicle id="S_E_77" type="standard_car" route="South_to_East" depart="5.0" departLane="random" departSpeed="max" />
    <vehicle id="N_E_78" type="standard_car" route="North_to_East" depart="5.0" departLane="random" departSpeed="max" />
    <vehicle id="W_E_79" type="standard_car" route="West_to_East" depart="6.0" departLane="random" departSpeed="max" />
    <vehicle id="N_S_80" type="standard_car" route="North_to_South" depart="6.0" departLane="random" departSpeed="max" />
    <vehicle id="S_N_81" type="standard_car" route="South_to_North" depart="6.0" departLane="random" departSpeed="max" />
    <vehicle id="S_N_82" type="standard_car" route="South_to_North" depart="6.0" departLane="random" departSpeed="max" />
    <vehicle id="N_S_83" type="standard_car" route="North_to_South" depart="6.0" departLane="random" departSpeed="max" />
    <vehicle id="S_N_84" type="standard_car" route="South_to_North" depart="6.0" departLane="random" departSpeed="max" />
    <vehicle id="E_W_85" type="standard_car" route="East_to_South" depart="6.0" departLane="random" departSpeed="max" />
    <vehicle id="W_E_86" type="standard_car" route="West_to_East" depart="6.0" departLane="random" departSpeed="max" />
    <vehicle id="E_W_87" type="standard_car" route="East_to_West" depart="6.0" departLane="random" departSpeed="max" />
    <vehicle id="W_S_88" type="standard_car" route="West_to_South" depart="6.0" departLane="random" departSpeed="max" />
    <vehicle id="S_N_89" type="standard_car" route="South_to_North" depart="6.0" departLane="random" departSpeed="max" />
    <vehicle id="W_E_90" type="standard_car" route="West_to_East" depart="6.0" departLane="random" departSpeed="max" />
    <vehicle id="S_N_91" type="standard_car" route="South_to_North" depart="6.0" departLane="random" departSpeed="max" />
    <vehicle id="E_W_92" type="standard_car" route="East_to_West" depart="6.0" departLane="random" departSpeed="max" />
    <vehicle id="W_E_93" type="standard_car" route="West_to_East" depart="6.0" departLane="random" departSpeed="max" />
    <vehicle id="S_W_94" type="standard_car" route="South_to_West" depart="6.0" departLane="random" departSpeed="max" />
    <vehicle id="E_N_95" type="standard_car" route="East_to_North" depart="6.0" departLane="random" departSpeed="max" />
    <vehicle id="N_W_96" type="standard_car" route="North_to_West" depart="6.0" departLane="random" departSpeed="max" />
    <vehicle id="W_S_97" type="standard_car" route="West_to_South" depart="6.0" departLane="random" departSpeed="max" />
    <vehicle id="W_S_98" type="standard_car" route="West_to_South" depart="6.0" departLane="random" departSpeed="max" />
    <vehicle id="N_E_99" type="standard_car" route="North_to_East" depart="6.0" departLane="random" departSpeed="max" />
    <vehicle id="E_W_100" type="standard_car" route="East_to_West" depart="7.0" departLane="random" departSpeed="max" />
    <vehicle id="S_W_101" type="standard_car" route="South_to_West" depart="7.0" departLane="random" departSpeed="max" />
    <vehicle id="W_N_102" type="standard_car" route="West_to_North" depart="7.0" departLane="random" departSpeed="max" />
    <vehicle id="W_E_103" type="standard_car" route="West_to_East" depart="7.0" departLane="random" departSpeed="max" />
    <vehicle id="E_W_104" type="standard_car" route="East_to_South" depart="7.0" departLane="random" departSpeed="max" />
    <vehicle id="W_E_105" type="standard_car" route="West_to_East" depart="7.0" departLane="random" departSpeed="max" />
    <vehicle id="S_W_106" type="standard_car" route="South_to_West" depart="7.0" departLane="random" departSpeed="max" />
    <vehicle id="N_S_107" type="standard_car" route="North_to_South" depart="7.0" departLane="random" departSpeed="max" />
    <vehicle id="W_S_108" type="standard_car" route="West_to_South" depart="7.0" departLane="random" departSpeed="max" />
    <vehicle id="W_E_109" type="standard_car" route="West_to_East" depart="7.0" departLane="random" departSpeed="max" />
    <vehicle id="W_S_110" type="standard_car" route="West_to_South" depart="7.0" departLane="random" departSpeed="max" />
    <vehicle id="N_S_111" type="standard_car" route="North_to_South" depart="7.0" departLane="random" departSpeed="max" />
    <vehicle id="W_E_112" type="standard_car" route="West_to_East" depart="7.0" departLane="random" departSpeed="max" />
    <vehicle id="N_E_113" type="standard_car" route="North_to_East" depart="7.0" departLane="random" departSpeed="max" />
    <vehicle id="N_S_114" type="standard_car" route="North_to_South" depart="7.0" departLane="random" departSpeed="max" />
    <vehicle id="W_N_115" type="standard_car" route="West_to_North" depart="7.0" departLane="random" departSpeed="max" />
    <vehicle id="N_E_116" type="standard_car" route="North_to_East" depart="7.0" departLane="random" departSpeed="max" />
    <vehicle id="W_E_117" type="standard_car" route="West_to_East" depart="7.0" departLane="random" departSpeed="max" />
    <vehicle id="W_E_118" type="standard_car" route="West_to_East" depart="7.0" departLane="random" departSpeed="max" />
    <vehicle id="W_E_119" type="standard_car" route="West_to_East" depart="7.0" departLane="random" departSpeed="max" />
    <vehicle id="W_E_120" type="standard_car" route="West_to_East" depart="7.0" departLane="random" departSpeed="max" />
    <vehicle id="S_E_121" type="standard_car" route="South_to_East" depart="7.0" departLane="random" departSpeed="max" />
    <vehicle id="S_N_122" type="standard_car" route="South_to_North" depart="7.0" departLane="random" departSpeed="max" />
    <vehicle id="E_W_123" type="standard_car" route="East_to_West" depart="7.0" departLane="random" departSpeed="max" />
    <vehicle id="W_S_124" type="standard_car" route="West_to_South" depart="7.0" departLane="random" departSpeed="max" />
    <vehicle id="S_W_125" type="standard_car" route="South_to_West" depart="7.0" departLane="random" departSpeed="max" />
    <vehicle id="W_E_126" type="standard_car" route="West_to_East" depart="7.0" departLane="random" departSpeed="max" />
    <vehicle id="W_E_127" type="standard_car" route="West_to_East" depart="7.0" departLane="random" departSpeed="max" />
    <vehicle id="E_W_128" type="standard_car" route="East_to_West" depart="7.0" departLane="random" departSpeed="max" />
    <vehicle id="S_N_129" type="standard_car" route="South_to_North" depart="7.0" departLane="random" departSpeed="max" />
    <vehicle id="W_E_130" type="standard_car" route="West_to_East" depart="7.0" departLane="random" departSpeed="max" />
    <vehicle id="W_E_131" type="standard_car" route="West_to_East" depart="7.0" departLane="random" departSpeed="max" />
    <vehicle id="E_W_132" type="standard_car" route="East_to_West" depart="8.0" departLane="random" departSpeed="max" />
    <vehicle id="N_W_133" type="standard_car" route="North_to_West" depart="8.0" departLane="random" departSpeed="max" />
    <vehicle id="W_E_134" type="standard_car" route="West_to_East" depart="8.0" departLane="random" departSpeed="max" />
    <vehicle id="E_W_135" type="standard_car" route="East_to_West" depart="8.0" departLane="random" departSpeed="max" />
    <vehicle id="E_W_136" type="standard_car" route="East_to_South" depart="8.0" departLane="random" departSpeed="max" />
    <vehicle id="S_N_137" type="standard_car" route="South_to_North" depart="8.0" departLane="random" departSpeed="max" />
    <vehicle id="S_N_138" type="standard_car" route="South_to_North" depart="8.0" departLane="random" departSpeed="max" />
    <vehicle id="N_S_139" type="standard_car" route="North_to_South" depart="8.0" departLane="random" departSpeed="max" />
    <vehicle id="S_E_140" type="standard_car" route="South_to_East" depart="8.0" departLane="random" departSpeed="max" />
    <vehicle id="N_S_141" type="standard_car" route="North_to_South" depart="8.0" departLane="random" departSpeed="max" />
    <vehicle id="E_W_142" type="standard_car" route="East_to_West" depart="8.0" departLane="random" departSpeed="max" />
    <vehicle id="N_S_143" type="standard_car" route="North_to_South" depart="8.0" departLane="random" departSpeed="max" />
    <vehicle id="N_E_144" type="standard_car" route="North_to_East" depart="8.0" departLane="random" departSpeed="max" />
    <vehicle id="W_E_145" type="standard_car" route="West_to_East" depart="8.0" departLane="random" departSpeed="max" />
    <vehicle id="E_W_146" type="standard_car" route="East_to_West" depart="8.0" departLane="random" departSpeed="max" />
    <vehicle id="E_W_147" type="standard_car" route="East_to_West" depart="8.0" departLane="random" departSpeed="max" />
    <vehicle id="W_E_148" type="standard_car" route="West_to_East" depart="8.0" departLane="random" departSpeed="max" />
    <vehicle id="S_N_149" type="standard_car" route="South_to_North" depart="8.0" departLane="random" departSpeed="max" />
    <vehicle id="E_W_150" type="standard_car" route="East_to_South" depart="8.0" departLane="random" departSpeed="max" />
    <vehicle id="N_S_151" type="standard_car" route="North_to_South" depart="8.0" departLane="random" departSpeed="max" />
    <vehicle id="W_E_152" type="standard_car" route="West_to_East" depart="8.0" departLane="random" departSpeed="max" />
    <vehicle id="E_W_153" type="standard_car" route="East_to_West" depart="8.0" departLane="random" departSpeed="max" />
    <vehicle id="W_E_154" type="standard_car" route="West_to_East" depart="8.0" departLane="random" departSpeed="max" />
    <vehicle id="N_E_155" type="standard_car" route="North_to_East" depart="8.0" departLane="random" departSpeed="max" />
    <vehicle id="E_W_156" type="standard_car" route="East_to_West" depart="8.0" departLane="random" departSpeed="max" />
    <vehicle id="W_E_157" type="standard_car" route="West_to_East" depart="8.0" departLane="random" departSpeed="max" />
    <vehicle id="E_W_158" type="standard_car" route="East_to_South" depart="8.0" departLane="random" departSpeed="max" />
    <vehicle id="W_E_159" type="standard_car" route="West_to_East" depart="8.0" departLane="random" departSpeed="max" />
    <vehicle id="N_S_160" type="standard_car" route="North_to_South" depart="9.0" departLane="random" departSpeed="max" />
    <vehicle id="N_S_161" type="standard_car" route="North_to_South" depart="9.0" departLane="random" departSpeed="max" />
    <vehicle id="W_N_162" type="standard_car" route="West_to_North" depart="9.0" departLane="random" departSpeed="max" />
    <vehicle id="S_N_163" type="standard_car" route="South_to_North" depart="9.0" departLane="random" departSpeed="max" />
    <vehicle id="W_S_164" type="standard_car" route="West_to_South" depart="9.0" departLane="random" departSpeed="max" />
    <vehicle id="N_S_165" type="standard_car" route="North_to_South" depart="9.0" departLane="random" departSpeed="max" />
    <vehicle id="S_N_166" type="standard_car" route="South_to_North" depart="9.0" departLane="random" departSpeed="max" />
    <vehicle id="S_W_167" type="standard_car" route="South_to_West" depart="9.0" departLane="random" departSpeed="max" />
    <vehicle id="W_N_168" type="standard_car" route="West_to_North" depart="9.0" departLane="random" departSpeed="max" />
    <vehicle id="E_N_169" type="standard_car" route="East_to_North" depart="9.0" departLane="random" departSpeed="max" />
    <vehicle id="E_N_170" type="standard_car" route="East_to_North" depart="9.0" departLane="random" departSpeed="max" />
    <vehicle id="N_S_171" type="standard_car" route="North_to_South" depart="9.0" departLane="random" departSpeed="max" />
    <vehicle id="S_N_172" type="standard_car" route="South_to_North" depart="9.0" departLane="random" departSpeed="max" />
    <vehicle id="S_E_173" type="standard_car" route="South_to_East" depart="9.0" departLane="random" departSpeed="max" />
    <vehicle id="W_E_174" type="standard_car" route="West_to_East" depart="9.0" departLane="random" departSpeed="max" />
    <vehicle id="S_E_175" type="standard_car" route="South_to_East" depart="9.0" departLane="random" departSpeed="max" />
    <vehicle id="W_N_176" type="standard_car" route="West_to_North" depart="9.0" departLane="random" departSpeed="max" />
    <vehicle id="E_W_177" type="standard_car" route="East_to_West" depart="9.0" departLane="random" departSpeed="max" />
    <vehicle id="N_S_178" type="standard_car" route="North_to_South" depart="9.0" departLane="random" departSpeed="max" />
    <vehicle id="S_N_179" type="standard_car" route="South_to_North" depart="9.0" departLane="random" departSpeed="max" />
    <vehicle id="W_E_180" type="standard_car" route="West_to_East" depart="9.0" departLane="random" departSpeed="max" />
    <vehicle id="S_W_181" type="standard_car" route="South_to_West" depart="9.0" departLane="random" departSpeed="max" />
    <vehicle id="N_S_182" type="standard_car" route="North_to_South" depart="9.0" departLane="random" departSpeed="max" />
    <vehicle id="E_W_183" type="standard_car" route="East_to_West" depart="9.0" departLane="random" departSpeed="max" />
    <vehicle id="W_N_184" type="standard_car" route="West_to_North" depart="9.0" departLane="random" departSpeed="max" />
    <vehicle id="E_W_185" type="standard_car" route="East_to_West" depart="9.0" departLane="random" departSpeed="max" />
    <vehicle id="S_N_186" type="standard_car" route="South_to_North" depart="9.0" departLane="random" departSpeed="max" />
    <vehicle id="W_E_187" type="standard_car" route="West_to_East" depart="9.0" departLane="random" departSpeed="max" />
    <vehicle id="N_W_188" type="standard_car" route="North_to_West" depart="9.0" departLane="random" departSpeed="max" />
    <vehicle id="W_N_189" type="standard_car" route="West_to_North" depart="9.0" departLane="random" departSpeed="max" />
    <vehicle id="N_W_190" type="standard_car" route="North_to_West" depart="9.0" departLane="random" departSpeed="max" />
    <vehicle id="E_W_191" type="standard_car" route="East_to_West" depart="9.0" departLane="random" departSpeed="max" />
    <vehicle id="S_N_192" type="standard_car" route="South_to_North" depart="9.0" departLane="random" departSpeed="max" />
    <vehicle id="S_N_193" type="standard_car" route="South_to_North" depart="9.0" departLane="random" departSpeed="max" />
    <vehicle id="S_N_194" type="standard_car" route="South_to_North" depart="9.0" departLane="random" departSpeed="max" />
    <vehicle id="E_N_195" type="standard_car" route="East_to_North" depart="9.0" departLane="random" departSpeed="max" />
    <vehicle id="E_W_196" type="standard_car" route="East_to_West" depart="9.0" departLane="random" departSpeed="max" />
    <vehicle id="W_N_197" type="standard_car" route="West_to_North" depart="9.0" departLane="random" departSpeed="max" />
    <vehicle id="S_N_198" type="standard_car" route="South_to_North" depart="9.0" departLane="random" departSpeed="max" />
    <vehicle id="S_E_199" type="standard_car" route="South_to_East" depart="9.0" departLane="random" departSpeed="max" />
    <vehicle id="N_S_200" type="standard_car" route="North_to_South" depart="9.0" departLane="random" departSpeed="max" />
    <vehicle id="E_W_201" type="standard_car" route="East_to_West" depart="9.0" departLane="random" departSpeed="max" />
    <vehicle id="E_W_202" type="standard_car" route="East_to_West" depart="10.0" departLane="random" departSpeed="max" />
    <vehicle id="N_S_203" type="standard_car" route="North_to_South" depart="10.0" departLane="random" departSpeed="max" />
    <vehicle id="S_N_204" type="standard_car" route="South_to_North" depart="10.0" departLane="random" departSpeed="max" />
    <vehicle id="E_N_205" type="standard_car" route="East_to_North" depart="10.0" departLane="random" departSpeed="max" />
    <vehicle id="E_W_206" type="standard_car" route="East_to_West" depart="10.0" departLane="random" departSpeed="max" />
    <vehicle id="W_S_207" type="standard_car" route="West_to_South" depart="10.0" departLane="random" departSpeed="max" />
    <vehicle id="W_E_208" type="standard_car" route="West_to_East" depart="10.0" departLane="random" departSpeed="max" />
    <vehicle id="W_E_209" type="standard_car" route="West_to_East" depart="10.0" departLane="random" departSpeed="max" />
    <vehicle id="S_N_210" type="standard_car" route="South_to_North" depart="10.0" departLane="random" departSpeed="max" />
    <vehicle id="N_W_211" type="standard_car" route="North_to_West" depart="10.0" departLane="random" departSpeed="max" />
    <vehicle id="S_N_212" type="standard_car" route="South_to_North" depart="10.0" departLane="random" departSpeed="max" />
    <vehicle id="S_E_213" type="standard_car" route="South_to_East" depart="10.0" departLane="random" departSpeed="max" />
    <vehicle id="S_N_214" type="standard_car" route="South_to_North" depart="10.0" departLane="random" departSpeed="max" />
    <vehicle id="E_W_215" type="standard_car" route="East_to_West" depart="10.0" departLane="random" departSpeed="max" />
    <vehicle id="E_N_216" type="standard_car" route="East_to_North" depart="10.0" departLane="random" departSpeed="max" />
    <vehicle id="N_W_217" type="standard_car" route="North_to_West" depart="10.0" departLane="random" departSpeed="max" />
    <vehicle id="N_W_218" type="standard_car" route="North_to_West" depart="10.0" departLane="random" departSpeed="max" />
    <vehicle id="W_E_219" type="standard_car" route="West_to_East" depart="10.0" departLane="random" departSpeed="max" />
    <vehicle id="S_N_220" type="standard_car" route="South_to_North" depart="10.0" departLane="random" departSpeed="max" />
    <vehicle id="S_E_221" type="standard_car" route="South_to_East" depart="10.0" departLane="random" departSpeed="max" />
    <vehicle id="E_W_222" type="standard_car" route="East_to_West" depart="10.0" departLane="random" departSpeed="max" />
    <vehicle id="E_W_223" type="standard_car" route="East_to_South" depart="10.0" departLane="random" departSpeed="max" />
    <vehicle id="E_W_224" type="standard_car" route="East_to_West" depart="10.0" departLane="random" departSpeed="max" />
    <vehicle id="S_N_225" type="standard_car" route="South_to_North" depart="10.0" departLane="random" departSpeed="max" />
    <vehicle id="N_S_226" type="standard_car" route="North_to_South" depart="10.0" departLane="random" departSpeed="max" />
    <vehicle id="W_E_227" type="standard_car" route="West_to_East" depart="10.0" departLane="random" departSpeed="max" />
    <vehicle id="N_W_228" type="standard_car" route="North_to_West" depart="10.0" departLane="random" departSpeed="max" />
    <vehicle id="W_E_229" type="standard_car" route="West_to_East" depart="10.0" departLane="random" departSpeed="max" />
    <vehicle id="N_S_230" type="standard_car" route="North_to_South" depart="10.0" departLane="random" departSpeed="max" />
    <vehicle id="E_W_231" type="standard_car" route="East_to_West" depart="10.0" departLane="random" departSpeed="max" />
    <vehicle id="S_N_232" type="standard_car" route="South_to_North" depart="10.0" departLane="random" departSpeed="max" />
    <vehicle id="S_W_233" type="standard_car" route="South_to_West" depart="10.0" departLane="random" departSpeed="max" />
    <vehicle id="S_W_234" type="standard_car" route="South_to_West" depart="10.0" departLane="random" departSpeed="max" />
    <vehicle id="E_N_235" type="standard_car" route="East_to_North" depart="10.0" departLane="random" departSpeed="max" />
    <vehicle id="E_W_236" type="standard_car" route="East_to_West" depart="10.0" departLane="random" departSpeed="max" />
    <vehicle id="E_W_237" type="standard_car" route="East_to_West" depart="10.0" departLane="random" departSpeed="max" />
    <vehicle id="N_S_238" type="standard_car" route="North_to_South" depart="10.0" departLane="random" departSpeed="max" />