<routes>
    <vType accel="1.0" id="standard_car" length="5.0" minGap="2.5" maxSpeed="60" sigma="0.5" />

    <route id="East_to_North" edges="right_in top_out"/>
    <route id="East_to_West" edges="right_in left_out"/>
    <route id="East_to_South" edges="right_in bottom_out"/>
    <route id="West_to_North" edges="left_in top_out"/>
    <route id="West_to_East" edges="left_in right_out"/>
    <route id="West_to_South" edges="left_in bottom_out"/>
    <route id="North_to_East" edges="top_in right_out"/>
    <route id="North_to_South" edges="top_in bottom_out"/>
    <route id="North_to_West" edges="top_in left_out"/>
    <route id="South_to_East" edges="bottom_in right_out"/>
    <route id="South_to_North" edges="bottom_in top_out"/>
    <route id="South_to_West" edges="bottom_in left_out"/>
           
    <vehicle id="W_S_0" type="standard_car" route="West_to_South" depart="9.0" departLane="random" departSpeed="max" />
    <vehicle id="N_S_1" type="standard_car" route="North_to_South" depart="66.0" departLane="random" departSpeed="max" />
    <vehicle id="E_W_2" type="standard_car" route="East_to_West" depart="85.0" departLane="random" departSpeed="max" />
    <vehicle id="E_N_3" type="standard_car" route="East_to_North" depart="94.0" departLane="random" departSpeed="max" />
    <vehicle id="N_S_4" type="standard_car" route="North_to_South" depart="110.0" departLane="random" departSpeed="max" />
    <vehicle id="W_S_5" type="standard_car" route="West_to_South" depart="116.0" departLane="random" departSpeed="max" />
    <vehicle id="S_N_6" type="standard_car" route="South_to_North" depart="122.0" departLane="random" departSpeed="max" />
    <vehicle id="S_W_7" type="standard_car" route="South_to_West" depart="123.0" departLane="random" departSpeed="max" />
    <vehicle id="N_W_8" type="standard_car" route="North_to_West" depart="126.0" departLane="random" departSpeed="max" />
    <vehicle id="N_S_9" type="standard_car" route="North_to_South" depart="127.0" departLane="random" departSpeed="max" />
    <vehicle id="S_W_10" type="standard_car" route="South_to_West" depart="132.0" departLane="random" departSpeed="max" />
    <vehicle id="N_S_11" type="standard_car" route="North_to_South" depart="147.0" departLane="random" departSpeed="max" />
    <vehicle id="S_N_12" type="standard_car" route="South_to_North" depart="155.0" departLane="random" departSpeed="max" />
    <vehicle id="W_E_13" type="standard_car" route="West_to_East" depart="156.0" departLane="random" departSpeed="max" />
    <vehicle id="W_E_14" type="standard_car" route="West_to_East" depart="157.0" departLane="random" departSpeed="max" />
    <vehicle id="S_N_15" type="standard_car" route="South_to_North" depart="165.0" departLane="random" departSpeed="max" />
    <vehicle id="S_N_16" type="standard_car" route="South_to_North" depart="174.0" departLane="random" departSpeed="max" />
    <vehicle id="E_N_17" type="standard_car" route="East_to_North" depart="176.0" departLane="random" departSpeed="max" />
    <vehicle id="N_S_18" type="standard_car" route="North_to_South" depart="183.0" departLane="random" departSpeed="max" />
    <vehicle id="E_W_19" type="standard_car" route="East_to_South" depart="185.0" departLane="random" departSpeed="max" />
    <vehicle id="W_E_20" type="standard_car" route="West_to_East" depart="188.0" departLane="random" departSpeed="max" />
    <vehicle id="E_N_21" type="standard_car" route="East_to_North" depart="193.0" departLane="random" departSpeed="max" />
    <vehicle id="S_N_22" type="standard_car" route="South_to_North" depart="200.0" departLane="random" departSpeed="max" />
    <vehicle id="S_N_23" type="standard_car" route="South_to_North" depart="203.0" departLane="random" departSpeed="max" />
    <vehicle id="N_W_24" type="standard_car" route="North_to_West" depart="207.0" departLane="random" departSpeed="max" />
    <vehicle id="S_N_25" type="standard_car" route="South_to_North" depart="208.0" departLane="random" departSpeed="max" />
    <vehicle id="W_S_26" type="standard_car" route="West_to_South" depart="218.0" departLane="random" departSpeed="max" />
    <vehicle id="N_S_27" type="standard_car" route="North_to_South" depart="218.0" departLane="random" departSpeed="max" />
    <vehicle id="N_S_28" type="standard_car" route="North_to_South" depart="219.0" departLane="random" departSpeed="max" />
    <vehicle id="E_N_29" type="standard_car" route="East_to_North" depart="222.0" departLane="random" departSpeed="max" />
    <vehicle id="W_N_30" type="standard_car" route="West_to_North" depart="223.0" departLane="random" departSpeed="max" />
    <vehicle id="N_S_31" type="standard_car" route="North_to_South" depart="229.0" departLane="random" departSpeed="max" />
    <vehicle id="E_W_32" type="standard_car" route="East_to_West" depart="229.0" departLane="random" departSpeed="max" />
    <vehicle id="N_S_33" type="standard_car" route="North_to_South" depart="231.0" departLane="random" departSpeed="max" />
    <vehicle id="S_E_34" type="standard_car" route="South_to_East" depart="231.0" departLane="random" departSpeed="max" />
    <vehicle id="E_W_35" type="standard_car" route="East_to_West" depart="231.0" departLane="random" departSpeed="max" />
    <vehicle id="S_N_36" type="standard_car" route="South_to_North" depart="236.0" departLane="random" departSpeed="max" />
    <vehicle id="E_W_37" type="standard_car" route="East_to_West" depart="238.0" departLane="random" departSpeed="max" />
    <vehicle id="E_W_38" type="standard_car" route="East_to_West" depart="239.0" departLane="random" departSpeed="max" />
    <vehicle id="E_W_39" type="standard_car" route="East_to_West" depart="241.0" departLane="random" departSpeed="max" />
    <vehicle id="E_N_40" type="standard_car" route="East_to_North" depart="243.0" departLane="random" departSpeed="max" />
    <vehicle id="S_N_41" type="standard_car" route="South_to_North" depart="248.0" departLane="random" departSpeed="max" />
    <vehicle id="E_W_42" type="standard_car" route="East_to_West" depart="248.0" departLane="random" departSpeed="max" />
    <vehicle id="S_N_43" type="standard_car" route="South_to_North" depart="252.0" departLane="random" departSpeed="max" />
    <vehicle id="S_N_44" type="standard_car" route="South_to_North" depart="259.0" departLane="random" departSpeed="max" />
    <vehicle id="N_S_45" type="standard_car" route="North_to_South" depart="269.0" departLane="random" departSpeed="max" />
    <vehicle id="W_E_46" type="standard_car" route="West_to_East" depart="277.0" departLane="random" departSpeed="max" />
    <vehicle id="S_W_47" type="standard_car" route="South_to_West" depart="280.0" departLane="random" departSpeed="max" />
    <vehicle id="W_E_48" type="standard_car" route="West_to_East" depart="282.0" departLane="random" departSpeed="max" />
    <vehicle id="E_W_49" type="standard_car" route="East_to_West" depart="284.0" departLane="random" departSpeed="max" />
    <vehicle id="S_N_50" type="standard_car" route="South_to_North" depart="288.0" departLane="random" departSpeed="max" />
    <vehicle id="S_N_51" type="standard_car" route="South_to_North" depart="292.0" departLane="random" departSpeed="max" />
    <vehicle id="N_S_52" type="standard_car" route="North_to_South" depart="292.0" departLane="random" departSpeed="max" />
    <vehicle id="N_S_53" type="standard_car" route="North_to_South" depart="300.0" departLane="random" departSpeed="max" />
    <vehicle id="W_E_54" type="standard_car" route="West_to_East" depart="301.0" departLane="random" departSpeed="max" />
    <vehicle id="S_N_55" type="standard_car" route="South_to_North" depart="303.0" departLane="random" departSpeed="max" />
    <vehicle id="E_N_56" type="standard_car" route="East_to_North" depart="306.0" departLane="random" departSpeed="max" />
    <vehicle id="E_W_57" type="standard_car" route="East_to_West" depart="308.0" departLane="random" departSpeed="max" />
    <vehicle id="W_S_58" type="standard_car" route="West_to_South" depart="314.0" departLane="random" departSpeed="max" />
    <vehicle id="N_S_59" type="standard_car" route="North_to_South" depart="317.0" departLane="random" departSpeed="max" />
    <vehicle id="S_E_60" type="standard_car" route="South_to_East" depart="321.0" departLane="random" departSpeed="max" />
    <vehicle id="N_E_61" type="standard_car" route="North_to_East" depart="323.0" departLane="random" departSpeed="max" />
    <vehicle id="W_E_62" type="standard_car" route="West_to_East" depart="323.0" departLane="random" departSpeed="max" />
    <vehicle id="W_E_63" type="standard_car" route="West_to_East" depart="323.0" departLane="random" departSpeed="max" />
    <vehicle id="W_E_64" type="standard_car" route="West_to_East" depart="324.0" departLane="random" departSpeed="max" />
    <vehicle id="N_S_65" type="standard_car" route="North_to_South" depart="329.0" departLane="random" departSpeed="max" />
    <vehicle id="W_E_66" type="standard_car" route="West_to_East" depart="331.0" departLane="random" departSpeed="max" />
    <vehicle id="E_W_67" type="standard_car" route="East_to_South" depart="336.0" departLane="random" departSpeed="max" />
    <vehicle id="E_W_68" type="standard_car" route="East_to_South" depart="338.0" departLane="random" departSpeed="max" />
    <vehicle id="S_E_69" type="standard_car" route="South_to_East" depart="343.0" departLane="random" departSpeed="max" />
    <vehicle id="W_S_70" type="standard_car" route="West_to_South" depart="343.0" departLane="random" departSpeed="max" />
    <vehicle id="N_S_71" type="standard_car" route="North_to_South" depart="344.0" departLane="random" departSpeed="max" />
    <vehicle id="W_N_72" type="standard_car" route="West_to_North" depart="347.0" departLane="random" departSpeed="max" />
    <vehicle id="N_S_73" type="standard_car" route="North_to_South" depart="348.0" departLane="random" departSpeed="max" />
    <vehicle id="E_W_74" type="standard_car" route="East_to_West" depart="350.0" departLane="random" departSpeed="max" />
    <vehicle id="W_S_75" type="standard_car" route="West_to_South" depart="350.0" departLane="random" departSpeed="max" />
    <vehicle id="E_N_76" type="standard_car" route="East_to_North" depart="352.0" departLane="random" departSpeed="max" />
    <vehicle id="W_S_77" type="standard_car" route="West_to_South" depart="354.0" departLane="random" departSpeed="max" />
    <vehicle id="S_N_78" type="standard_car" route="South_to_North" depart="356.0" departLane="random" departSpeed="max" />
    <vehicle id="W_E_79" type="standard_car" route="West_to_East" depart="357.0" departLane="random" departSpeed="max" />
    <vehicle id="S_N_80" type="standard_car" route="South_to_North" depart="360.0" departLane="random" departSpeed="max" />
    <vehicle id="N_W_81" type="standard_car" route="North_to_West" depart="362.0" departLane="random" departSpeed="max" />
    <vehicle id="N_S_82" type="standard_car" route="North_to_South" depart="365.0" departLane="random" departSpeed="max" />
    <vehicle id="S_N_83" type="standard_car" route="South_to_North" depart="366.0" departLane="random" departSpeed="max" />
    <vehicle id="S_E_84" type="standard_car" route="South_to_East" depart="369.0" departLane="random" departSpeed="max" />
    <vehicle id="W_E_85" type="standard_car" route="West_to_East" depart="372.0" departLane="random" departSpeed="max" />
    <vehicle id="N_W_86" type="standard_car" route="North_to_West" depart="377.0" departLane="random" departSpeed="max" />
    <vehicle id="S_E_87" type="standard_car" route="South_to_East" depart="380.0" departLane="random" departSpeed="max" />
    <vehicle id="S_W_88" type="standard_car" route="South_to_West" depart="385.0" departLane="random" departSpeed="max" />
    <vehicle id="W_E_89" type="standard_car" route="West_to_East" depart="389.0" departLane="random" departSpeed="max" />
    <vehicle id="N_W_90" type="standard_car" route="North_to_West" depart="389.0" departLane="random" departSpeed="max" />
    <vehicle id="S_N_91" type="standard_car" route="South_to_North" depart="389.0" departLane="random" departSpeed="max" />
    <vehicle id="E_N_92" type="standard_car" route="East_to_North" depart="389.0" departLane="random" departSpeed="max" />
    <vehicle id="N_W_93" type="standard_car" route="North_to_West" depart="391.0" departLane="random" departSpeed="max" />
    <vehicle id="E_N_94" type="standard_car" route="East_to_North" depart="392.0" departLane="random" departSpeed="max" />
    <vehicle id="N_E_95" type="standard_car" route="North_to_East" depart="396.0" departLane="random" departSpeed="max" />
    <vehicle id="E_W_96" type="standard_car" route="East_to_West" depart="399.0" departLane="random" departSpeed="max" />
    <vehicle id="N_E_97" type="standard_car" route="North_to_East" depart="404.0" departLane="random" departSpeed="max" />
    <vehicle id="S_E_98" type="standard_car" route="South_to_East" depart="406.0" departLane="random" departSpeed="max" />
    <vehicle id="E_N_99" type="standard_car" route="East_to_North" depart="408.0" departLane="random" departSpeed="max" />
    <vehicle id="S_N_100" type="standard_car" route="South_to_North" depart="408.0" departLane="random" departSpeed="max" />
    <vehicle id="N_E_101" type="standard_car" route="North_to_East" depart="412.0" departLane="random" departSpeed="max" />
    <vehicle id="N_S_102" type="standard_car" route="North_to_South" depart="415.0" departLane="random" departSpeed="max" />
    <vehicle id="S_E_103" type="standard_car" route="South_to_East" depart="416.0" departLane="random" departSpeed="max" />
    <vehicle id="W_E_104" type="standard_car" route="West_to_East" depart="416.0" departLane="random" departSpeed="max" />
    <vehicle id="N_E_105" type="standard_car" route="North_to_East" depart="417.0" departLane="random" departSpeed="max" />
    <vehicle id="S_N_106" type="standard_car" route="South_to_North" depart="418.0" departLane="random" departSpeed="max" />
    <vehicle id="W_E_107" type="standard_car" route="West_to_East" depart="419.0" departLane="random" departSpeed="max" />
    <vehicle id="E_W_108" type="standard_car" route="East_to_West" depart="422.0" departLane="random" departSpeed="max" />
    <vehicle id="N_W_109" type="standard_car" route="North_to_West" depart="427.0" departLane="random" departSpeed="max" />
    <vehicle id="W_S_110" type="standard_car" route="West_to_South" depart="431.0" departLane="random" departSpeed="max" />
    <vehicle id="E_N_111" type="standard_car" route="East_to_North" depart="434.0" departLane="random" departSpeed="max" />
    <vehicle id="N_S_112" type="standard_car" route="North_to_South" depart="436.0" departLane="random" departSpeed="max" />
    <vehicle id="W_E_113" type="standard_car" route="West_to_East" depart="436.0" departLane="random" departSpeed="max" />
    <vehicle id="S_N_114" type="standard_car" route="South_to_North" depart="443.0" departLane="random" departSpeed="max" />
    <vehicle id="E_W_115" type="standard_car" route="East_to_West" depart="444.0" departLane="random" departSpeed="max" />
    <vehicle id="E_W_116" type="standard_car" route="East_to_West" depart="446.0" departLane="random" departSpeed="max" />
    <vehicle id="S_N_117" type="standard_car" route="South_to_North" depart="447.0" departLane="random" departSpeed="max" />
    <vehicle id="S_N_118" type="standard_car" route="South_to_North" depart="450.0" departLane="random" departSpeed="max" />
    <vehicle id="N_S_119" type="standard_car" route="North_to_South" depart="450.0" departLane="random" departSpeed="max" />
    <vehicle id="E_N_120" type="standard_car" route="East_to_North" depart="454.0" departLane="random" departSpeed="max" />
    <vehicle id="W_E_121" type="standard_car" route="West_to_East" depart="455.0" departLane="random" departSpeed="max" />
    <vehicle id="N_W_122" type="standard_car" route="North_to_West" depart="458.0" departLane="random" departSpeed="max" />
    <vehicle id="E_W_123" type="standard_car" route="East_to_South" depart="459.0" departLane="random" departSpeed="max" />
    <vehicle id="E_W_124" type="standard_car" route="East_to_South" depart="460.0" departLane="random" departSpeed="max" />
    <vehicle id="N_S_125" type="standard_car" route="North_to_South" depart="462.0" departLane="random" departSpeed="max" />
    <vehicle id="W_E_126" type="standard_car" route="West_to_East" depart="464.0" departLane="random" departSpeed="max" />
    <vehicle id="S_N_127" type="standard_car" route="South_to_North" depart="464.0" departLane="random" departSpeed="max" />
    <vehicle id="N_S_128" type="standard_car" route="North_to_South" depart="464.0" departLane="random" departSpeed="max" />
    <vehicle id="S_N_129" type="standard_car" route="South_to_North" depart="465.0" departLane="random" departSpeed="max" />
    <vehicle id="W_S_130" type="standard_car" route="West_to_South" depart="467.0" departLane="random" departSpeed="max" />
    <vehicle id="E_W_131" type="standard_car" route="East_to_West" depart="469.0" departLane="random" departSpeed="max" />
    <vehicle id="E_W_132" type="standard_car" route="East_to_West" depart="469.0" departLane="random" departSpeed="max" />
    <vehicle id="E_W_133" type="standard_car" route="East_to_West" depart="470.0" departLane="random" departSpeed="max" />
    <vehicle id="N_E_134" type="standard_car" route="North_to_East" depart="470.0" departLane="random" departSpeed="max" />
    <vehicle id="W_E_135" type="standard_car" route="West_to_East" depart="471.0" departLane="random" departSpeed="max" />
    <vehicle id="S_N_136" type="standard_car" route="South_to_North" depart="471.0" departLane="random" departSpeed="max" />
    <vehicle id="E_W_137" type="standard_car" route="East_to_South" depart="471.0" departLane="random" departSpeed="max" />
    <vehicle id="E_W_138" type="standard_car" route="East_to_South" depart="479.0" departLane="random" departSpeed="max" />
    <vehicle id="W_E_139" type="standard_car" route="West_to_East" depart="479.0" departLane="random" departSpeed="max" />
    <vehicle id="N_E_140" type="standard_car" route="North_to_East" depart="480.0" departLane="random" departSpeed="max" />
    <vehicle id="E_W_141" type="standard_car" route="East_to_West" depart="483.0" departLane="random" departSpeed="max" />
    <vehicle id="S_N_142" type="standard_car" route="South_to_North" depart="483.0" departLane="random" departSpeed="max" />
    <vehicle id="W_E_143" type="standard_car" route="West_to_East" depart="483.0" departLane="random" departSpeed="max" />
    <vehicle id="N_E_144" type="standard_car" route="North_to_East" depart="487.0" departLane="random" departSpeed="max" />
    <vehicle id="N_E_145" type="standard_car" route="North_to_East" depart="492.0" departLane="random" departSpeed="max" />
    <vehicle id="N_W_146" type="standard_car" route="North_to_West" depart="495.0" departLane="random" departSpeed="max" />
    <vehicle id="N_S_147" type="standard_car" route="North_to_South" depart="495.0" departLane="random" departSpeed="max" />
    <vehicle id="S_W_148" type="standard_car" route="South_to_West" depart="496.0" departLane="random" departSpeed="max" />
    <vehicle id="E_W_149" type="standard_car" route="East_to_South" depart="497.0" departLane="random" departSpeed="max" />
    <vehicle id="E_N_150" type="standard_car" route="East_to_North" depart="503.0" departLane="random" departSpeed="max" />
    <vehicle id="N_S_151" type="standard_car" route="North_to_South" depart="506.0" departLane="random" departSpeed="max" />
    <vehicle id="W_E_152" type="standard_car" route="West_to_East" depart="513.0" departLane="random" departSpeed="max" />
    <vehicle id="N_E_153" type="standard_car" route="North_to_East" depart="517.0" departLane="random" departSpeed="max" />
    <vehicle id="N_S_154" type="standard_car" route="North_to_South" depart="517.0" departLane="random" departSpeed="max" />
    <vehicle id="S_N_155" type="standard_car" route="South_to_North" depart="518.0" departLane="random" departSpeed="max" />
    <vehicle id="W_N_156" type="standard_car" route="West_to_North" depart="518.0" departLane="random" departSpeed="max" />
    <vehicle id="W_N_157" type="standard_car" route="West_to_North" depart="519.0" departLane="random" departSpeed="max" />
    <vehicle id="W_E_158" type="standard_car" route="West_to_East" depart="523.0" departLane="random" departSpeed="max" />
    <vehicle id="S_E_159" type="standard_car" route="South_to_East" depart="525.0" departLane="random" departSpeed="max" />
    <vehicle id="E_W_160" type="standard_car" route="East_to_West" depart="526.0" departLane="random" departSpeed="max" />
    <vehicle id="S_E_161" type="standard_car" route="South_to_East" depart="526.0" departLane="random" departSpeed="max" />
    <vehicle id="E_W_162" type="standard_car" route="East_to_West" depart="531.0" departLane="random" departSpeed="max" />
    <vehicle id="W_E_163" type="standard_car" route="West_to_East" depart="532.0" departLane="random" departSpeed="max" />
    <vehicle id="N_S_164" type="standard_car" route="North_to_South" depart="532.0" departLane="random" departSpeed="max" />
    <vehicle id="S_N_165" type="standard_car" route="South_to_North" depart="536.0" departLane="random" departSpeed="max" />
    <vehicle id="E_W_166" type="standard_car" route="East_to_West" depart="539.0" departLane="random" departSpeed="max" />
    <vehicle id="S_W_167" type="standard_car" route="South_to_West" depart="540.0" departLane="random" departSpeed="max" />
    <vehicle id="E_N_168" type="standard_car" route="East_to_North" depart="540.0" departLane="random" departSpeed="max" />
    <vehicle id="N_W_169" type="standard_car" route="North_to_West" depart="542.0" departLane="random" departSpeed="max" />
    <vehicle id="S_W_170" type="standard_car" route="South_to_West" depart="544.0" departLane="random" departSpeed="max" />
    <vehicle id="W_E_171" type="standard_car" route="West_to_East" depart="544.0" departLane="random" departSpeed="max" />
    <vehicle id="W_S_172" type="standard_car" route="West_to_South" depart="545.0" departLane="random" departSpeed="max" />
    <vehicle id="S_N_173" type="standard_car" route="South_to_North" depart="546.0" departLane="random" departSpeed="max" />
    <vehicle id="S_N_174" type="standard_car" route="South_to_North" depart="546.0" departLane="random" departSpeed="max" />
    <vehicle id="S_W_175" type="standard_car" route="South_to_West" depart="547.0" departLane="random" departSpeed="max" />
    <vehicle id="E_W_176" type="standard_car" route="East_to_West" depart="551.0" departLane="random" departSpeed="max" />
    <vehicle id="W_S_177" type="standard_car" route="West_to_South" depart="552.0" departLane="random" departSpeed="max" />
    <vehicle id="S_W_178" type="standard_car" route="South_to_West" depart="554.0" departLane="random" departSpeed="max" />
    <vehicle id="W_E_179" type="standard_car" route="West_to_East" depart="556.0" departLane="random" departSpeed="max" />
    <vehicle id="E_W_180" type="standard_car" route="East_to_West" depart="562.0" departLane="random" departSpeed="max" />
    <vehicle id="W_E_181" type="standard_car" route="West_to_East" depart="566.0" departLane="random" departSpeed="max" />
    <vehicle id="N_E_182" type="standard_car" route="North_to_East" depart="566.0" departLane="random" departSpeed="max" />
    <vehicle id="S_E_183" type="standard_car" route="South_to_East" depart="566.0" departLane="random" departSpeed="max" />
    <vehicle id="N_E_184" type="standard_car" route="North_to_East" depart="567.0" departLane="random" departSpeed="max" />
    <vehicle id="E_W_185" type="standard_car" route="East_to_West" depart="569.0" departLane="random" departSpeed="max" />
    <vehicle id="N_S_186" type="standard_car" route="North_to_South" depart="569.0" departLane="random" departSpeed="max" />
    <vehicle id="W_N_187" type="standard_car" route="West_to_North" depart="571.0" departLane="random" departSpeed="max" />
    <vehicle id="W_N_188" type="standard_car" route="West_to_North" depart="571.0" departLane="random" departSpeed="max" />
    <vehicle id="N_W_189" type="standard_car" route="North_to_West" depart="571.0" departLane="random" departSpeed="max" />
    <vehicle id="N_E_190" type="standard_car" route="North_to_East" depart="573.0" departLane="random" departSpeed="max" />
    <vehicle id="S_N_191" type="standard_car" route="South_to_North" depart="579.0" departLane="random" departSpeed="max" />
    <vehicle id="W_E_192" type="standard_car" route="West_to_East" depart="581.0" departLane="random" departSpeed="max" />
    <vehicle id="E_W_193" type="standard_car" route="East_to_West" depart="584.0" departLane="random" departSpeed="max" />
    <vehicle id="W_E_194" type="standard_car" route="West_to_East" depart="586.0" departLane="random" departSpeed="max" />
    <vehicle id="W_N_195" type="standard_car" route="West_to_North" depart="587.0" departLane="random" departSpeed="max" />
    <vehicle id="W_E_196" type="standard_car" route="West_to_East" depart="588.0" departLane="random" departSpeed="max" />
    <vehicle id="W_E_197" type="standard_car" route="West_to_East" depart="589.0" departLane="random" departSpeed="max" />
    <vehicle id="S_W_198" type="standard_car" route="South_to_West" depart="593.0" departLane="random" departSpeed="max" />
    <vehicle id="W_S_199" type="standard_car" route="West_to_South" depart="595.0" departLane="random" departSpeed="max" />
    <vehicle id="E_W_200" type="standard_car" route="East_to_South" depart="596.0" departLane="random" departSpeed="max" />
    <vehicle id="N_S_201" type="standard_car" route="North_to_South" depart="596.0" departLane="random" departSpeed="max" />
    <vehicle id="S_E_202" type="standard_car" route="South_to_East" depart="596.0" departLane="random" departSpeed="max" />
    <vehicle id="W_E_203" type="standard_car" route="West_to_East" depart="597.0" departLane="random" departSpeed="max" />
    <vehicle id="W_E_204" type="standard_car" route="West_to_East" depart="602.0" departLane="random" departSpeed="max" />
    <vehicle id="S_N_205" type="standard_car" route="South_to_North" depart="602.0" departLane="random" departSpeed="max" />
    <vehicle id="N_E_206" type="standard_car" route="North_to_East" depart="602.0" departLane="random" departSpeed="max" />
    <vehicle id="W_E_207" type="standard_car" route="West_to_East" depart="603.0" departLane="random" departSpeed="max" />
    <vehicle id="E_W_208" type="standard_car" route="East_to_West" depart="604.0" departLane="random" departSpeed="max" />
    <vehicle id="S_N_209" type="standard_car" route="South_to_North" depart="604.0" departLane="random" departSpeed="max" />
    <vehicle id="W_E_210" type="standard_car" route="West_to_East" depart="606.0" departLane="random" departSpeed="max" />
    <vehicle id="N_S_211" type="standard_car" route="North_to_South" depart="610.0" departLane="random" departSpeed="max" />
    <vehicle id="W_S_212" type="standard_car" route="West_to_South" depart="610.0" departLane="random" departSpeed="max" />
    <vehicle id="W_E_213" type="standard_car" route="West_to_East" depart="610.0" departLane="random" departSpeed="max" />
    <vehicle id="S_N_214" type="standard_car" route="South_to_North" depart="610.0" departLane="random" departSpeed="max" />
    <vehicle id="N_W_215" type="standard_car" route="North_to_West" depart="614.0" departLane="random" departSpeed="max" />
    <vehicle id="E_W_216" type="standard_car" route="East_to_West" depart="615.0" departLane="random" departSpeed="max" />
    <vehicle id="N_S_217" type="standard_car" route="North_to_South" depart="617.0" departLane="random" departSpeed="max" />
    <vehicle id="N_W_218" type="standard_car" route="North_to_West" depart="617.0" departLane="random" departSpeed="max" />
    <vehicle id="E_W_219" type="standard_car" route="East_to_West" depart="625.0" departLane="random" departSpeed="max" />
    <vehicle id="E_W_220" type="standard_car" route="East_to_West" depart="632.0" departLane="random" departSpeed="max" />
    <vehicle id="W_E_221" type="standard_car" route="West_to_East" depart="632.0" departLane="random" departSpeed="max" />
    <vehicle id="E_W_222" type="standard_car" route="East_to_West" depart="633.0" departLane="random" departSpeed="max" />
    <vehicle id="E_N_223" type="standard_car" route="East_to_North" depart="633.0" departLane="random" departSpeed="max" />
    <vehicle id="N_S_224" type="standard_car" route="North_to_South" depart="634.0" departLane="random" departSpeed="max" />
    <vehicle id="N_S_225" type="standard_car" route="North_to_South" depart="636.0" departLane="random" departSpeed="max" />
    <vehicle id="S_N_226" type="standard_car" route="South_to_North" depart="637.0" departLane="random" departSpeed="max" />
    <vehicle id="E_W_227" type="standard_car" route="East_to_South" depart="638.0" departLane="random" departSpeed="max" />
    <vehicle id="E_W_228" type="standard_car" route="East_to_West" depart="639.0" departLane="random" departSpeed="max" />
    <vehicle id="E_N_229" type="standard_car" route="East_to_North" depart="641.0" departLane="random" departSpeed="max" />
    <vehicle id="S_W_230" type="standard_car" route="South_to_West" depart="642.0" departLane="random" departSpeed="max" />
    <vehicle id="S_N_231" type="standard_car" route="South_to_North" depart="642.0" departLane="random" departSpeed="max" />
    <vehicle id="S_N_232" type="standard_car" route="South_to_North" depart="643.0" departLane="random" departSpeed="max" />
    <vehicle id="S_N_233" type="standard_car" route="South_to_North" depart="643.0" departLane="random" departSpeed="max" />
    <vehicle id="N_S_234" type="standard_car" route="North_to_South" depart="644.0" departLane="random" departSpeed="max" />
    <vehicle id="E_W_235" type="standard_car" route="East_to_South" depart="644.0" departLane="random" departSpeed="max" />