<?xml version="1.0" encoding="UTF-8"?>

<!-- generated on 2022-05-30 18:30:57 by Eclipse SUMO netedit Version 1.13.0
<configuration xmlns:xsi="http://www.w3.org/2001/XMLSchema-instance" xsi:noNamespaceSchemaLocation="http://sumo.dlr.de/xsd/netconvertConfiguration.xsd">

    <input>
        <sumo-net-file value="C:\Users\Lance\Desktop\All\Pedro%20Gil\PG.net.xml"/>
    </input>

    <output>
        <output-file value="C:\Users\Lance\Desktop\All\Pedro%20Gil\PG.net.xml"/>
    </output>

    <processing>
        <geometry.min-radius.fix.railways value="false"/>
        <geometry.max-grade.fix value="false"/>
        <offset.disable-normalization value="true"/>
        <lefthand value="false"/>
    </processing>

    <junctions>
        <no-turnarounds value="true"/>
        <junctions.corner-detail value="5"/>
        <junctions.limit-turn-speed value="5.5"/>
        <rectangular-lane-cut value="false"/>
    </junctions>

    <pedestrian>
        <walkingareas value="false"/>
    </pedestrian>

    <report>
        <aggregate-warnings value="5"/>
    </report>

</configuration>
-->

<net version="1.9" junctionCornerDetail="5" limitTurnSpeed="5.50" xmlns:xsi="http://www.w3.org/2001/XMLSchema-instance" xsi:noNamespaceSchemaLocation="http://sumo.dlr.de/xsd/net_file.xsd">

    <location netOffset="0.00,0.00" convBoundary="-4400.00,-3000.00,4500.00,40800.00" origBoundary="-10000000000.00,-10000000000.00,10000000000.00,10000000000.00" projParameter="!"/>

    <edge id=":J35_0" function="internal">
        <lane id=":J35_0_0" index="0" speed="16.67" length="20.80" shape="-111.20,24204.00 -111.20,24183.20"/>
        <lane id=":J35_0_1" index="1" speed="16.67" length="20.80" shape="-108.00,24204.00 -108.00,24183.20"/>
        <lane id=":J35_0_2" index="2" speed="16.67" length="20.80" shape="-104.80,24204.00 -104.80,24183.20"/>
        <lane id=":J35_0_3" index="3" speed="16.67" length="20.80" shape="-101.60,24204.00 -101.60,24183.20"/>
    </edge>
    <edge id=":J35_4" function="internal">
        <lane id=":J35_4_0" index="0" speed="10.88" length="27.14" shape="-101.60,24204.00 -100.45,24197.35 -97.00,24192.60 -91.25,24189.75 -83.20,24188.80"/>
        <lane id=":J35_4_1" index="1" speed="10.41" length="24.73" shape="-101.60,24204.00 -100.45,24198.75 -97.00,24195.00 -91.25,24192.75 -83.20,24192.00"/>
        <lane id=":J35_4_2" index="2" speed="9.94" length="22.48" shape="-101.60,24204.00 -100.45,24200.15 -97.00,24197.40 -91.25,24195.75 -83.20,24195.20"/>
        <lane id=":J35_4_3" index="3" speed="9.51" length="20.48" shape="-101.60,24204.00 -100.45,24201.55 -97.00,24199.80 -91.25,24198.75 -83.20,24198.40"/>
    </edge>
    <edge id=":J35_8" function="internal">
        <lane id=":J35_8_0" index="0" speed="6.51" length="9.03" shape="-88.80,24183.20 -88.45,24185.65 -87.40,24187.40 -85.65,24188.45 -83.20,24188.80"/>
        <lane id=":J35_8_1" index="1" speed="7.33" length="11.73" shape="-88.80,24183.20 -88.45,24187.05 -87.40,24189.80 -85.65,24191.45 -83.20,24192.00"/>
        <lane id=":J35_8_2" index="2" speed="8.10" length="14.57" shape="-88.80,24183.20 -88.45,24188.45 -87.40,24192.20 -85.65,24194.45 -83.20,24195.20"/>
    </edge>
    <edge id=":J35_11" function="internal">
        <lane id=":J35_11_0" index="0" speed="15.28" length="20.80" shape="-88.80,24183.20 -88.80,24204.00"/>
        <lane id=":J35_11_1" index="1" speed="15.28" length="20.80" shape="-92.00,24183.20 -92.00,24204.00"/>
        <lane id=":J35_11_2" index="2" speed="15.28" length="20.80" shape="-95.20,24183.20 -95.20,24204.00"/>
        <lane id=":J35_11_3" index="3" speed="15.28" length="20.80" shape="-98.40,24183.20 -98.40,24204.00"/>
    </edge>
    <edge id=":J38_0" function="internal">
        <lane id=":J38_0_0" index="0" speed="15.28" length="0.10" shape="-111.20,28600.00 -111.20,28600.00"/>
        <lane id=":J38_0_1" index="1" speed="15.28" length="0.10" shape="-108.00,28600.00 -108.00,28600.00"/>
        <lane id=":J38_0_2" index="2" speed="15.28" length="0.10" shape="-104.80,28600.00 -104.80,28600.00"/>
        <lane id=":J38_0_3" index="3" speed="15.28" length="0.10" shape="-101.60,28600.00 -101.60,28600.00"/>
    </edge>
    <edge id=":J38_4" function="internal">
        <lane id=":J38_4_0" index="0" speed="13.89" length="0.10" shape="-88.80,28600.00 -88.80,28600.00"/>
        <lane id=":J38_4_1" index="1" speed="13.89" length="0.10" shape="-92.00,28600.00 -92.00,28600.00"/>
        <lane id=":J38_4_2" index="2" speed="13.89" length="0.10" shape="-95.20,28600.00 -95.20,28600.00"/>
        <lane id=":J38_4_3" index="3" speed="13.89" length="0.10" shape="-98.40,28600.00 -98.40,28600.00"/>
    </edge>

    <edge id="-E34" from="J35" to="J29" priority="-1" length="1000.00">
        <lane id="-E34_0" index="0" speed="16.67" length="1000.00" shape="-111.20,24183.20 -111.20,11700.00"/>
        <lane id="-E34_1" index="1" speed="16.67" length="1000.00" shape="-108.00,24183.20 -108.00,11700.00"/>
        <lane id="-E34_2" index="2" speed="16.67" length="1000.00" shape="-104.80,24183.20 -104.80,11700.00"/>
        <lane id="-E34_3" index="3" speed="16.67" length="1000.00" shape="-101.60,24183.20 -101.60,11700.00"/>
    </edge>
    <edge id="-E37" from="J38" to="J35" priority="-1" length="1000.00">
        <lane id="-E37_0" index="0" speed="16.67" length="1000.00" shape="-111.20,28600.00 -111.20,24204.00"/>
        <lane id="-E37_1" index="1" speed="16.67" length="1000.00" shape="-108.00,28600.00 -108.00,24204.00"/>
        <lane id="-E37_2" index="2" speed="16.67" length="1000.00" shape="-104.80,28600.00 -104.80,24204.00"/>
        <lane id="-E37_3" index="3" speed="16.67" length="1000.00" shape="-101.60,28600.00 -101.60,24204.00"/>
    </edge>
    <edge id="-E8" from="J6" to="J38" priority="-1">
        <lane id="-E8_0" index="0" speed="13.89" length="3400.00" shape="-111.20,32000.00 -111.20,28600.00"/>
        <lane id="-E8_1" index="1" speed="13.89" length="3400.00" shape="-108.00,32000.00 -108.00,28600.00"/>
        <lane id="-E8_2" index="2" speed="13.89" length="3400.00" shape="-104.80,32000.00 -104.80,28600.00"/>
        <lane id="-E8_3" index="3" speed="13.89" length="3400.00" shape="-101.60,32000.00 -101.60,28600.00"/>
    </edge>
    <edge id="E34" from="J29" to="J35" priority="-1" length="1000.00">
        <lane id="E34_0" index="0" speed="16.67" length="1000.00" shape="-88.80,11700.00 -88.80,24183.20"/>
        <lane id="E34_1" index="1" speed="16.67" length="1000.00" shape="-92.00,11700.00 -92.00,24183.20"/>
        <lane id="E34_2" index="2" speed="16.67" length="1000.00" shape="-95.20,11700.00 -95.20,24183.20"/>
        <lane id="E34_3" index="3" speed="16.67" length="1000.00" shape="-98.40,11700.00 -98.40,24183.20"/>
    </edge>
    <edge id="E35" from="J35" to="J36" priority="-1" length="1000.00">
        <lane id="E35_0" index="0" speed="13.89" length="1000.00" shape="-83.20,24188.80 3000.00,24188.80"/>
        <lane id="E35_1" index="1" speed="13.89" length="1000.00" shape="-83.20,24192.00 3000.00,24192.00"/>
        <lane id="E35_2" index="2" speed="13.89" length="1000.00" shape="-83.20,24195.20 3000.00,24195.20"/>
        <lane id="E35_3" index="3" speed="13.89" length="1000.00" shape="-83.20,24198.40 3000.00,24198.40"/>
    </edge>
    <edge id="E37" from="J35" to="J38" priority="-1" length="1000.00">
        <lane id="E37_0" index="0" speed="13.89" length="1000.00" shape="-88.80,24204.00 -88.80,28600.00"/>
        <lane id="E37_1" index="1" speed="13.89" length="1000.00" shape="-92.00,24204.00 -92.00,28600.00"/>
        <lane id="E37_2" index="2" speed="13.89" length="1000.00" shape="-95.20,24204.00 -95.20,28600.00"/>
        <lane id="E37_3" index="3" speed="13.89" length="1000.00" shape="-98.40,24204.00 -98.40,28600.00"/>
    </edge>
    <edge id="E8" from="J38" to="J6" priority="-1">
        <lane id="E8_0" index="0" speed="13.89" length="3400.00" shape="-88.80,28600.00 -88.80,32000.00"/>
        <lane id="E8_1" index="1" speed="13.89" length="3400.00" shape="-92.00,28600.00 -92.00,32000.00"/>
        <lane id="E8_2" index="2" speed="13.89" length="3400.00" shape="-95.20,28600.00 -95.20,32000.00"/>
        <lane id="E8_3" index="3" speed="13.89" length="3400.00" shape="-98.40,28600.00 -98.40,32000.00"/>
    </edge>

    <tlLogic id="J35" type="static" programID="0" offset="0">
        <phase duration="10" state="GGGGrrrrGGGGGGG"/>
        <phase duration="5"  state="yyyyrrrryyyyyyy"/>
        <phase duration="10" state="GGGGGGGGrrrrrrr"/>
        <phase duration="5"  state="yyyyGGGGrrrrrrr"/>
        <phase duration="5"  state="rrrryyyyrrrrrrr"/>
    </tlLogic>

    <junction id="J10" type="dead_end" x="-3100.00" y="-1400.00" incLanes="" intLanes="" shape="-3100.00,-1400.00"/>
    <junction id="J11" type="dead_end" x="-100.00" y="-3000.00" incLanes="" intLanes="" shape="-100.00,-3000.00"/>
    <junction id="J14" type="dead_end" x="4500.00" y="32000.00" incLanes="" intLanes="" shape="4500.00,32000.00"/>
    <junction id="J16" type="dead_end" x="3000.00" y="2500.00" incLanes="" intLanes="" shape="3000.00,2500.00"/>
    <junction id="J17" type="dead_end" x="-3100.00" y="2500.00" incLanes="" intLanes="" shape="-3100.00,2500.00"/>
    <junction id="J20" type="dead_end" x="-100.00" y="3000.00" incLanes="" intLanes="" shape="-100.00,3000.00"/>
    <junction id="J21" type="dead_end" x="3200.00" y="6900.00" incLanes="" intLanes="" shape="3200.00,6900.00"/>
    <junction id="J22" type="dead_end" x="-3100.00" y="6900.00" incLanes="" intLanes="" shape="-3100.00,6900.00"/>
    <junction id="J26" type="dead_end" x="-3900.00" y="10200.00" incLanes="" intLanes="" shape="-3900.00,10200.00"/>
    <junction id="J27" type="dead_end" x="-100.00" y="13300.00" incLanes="" intLanes="" shape="-100.00,13300.00"/>
    <junction id="J28" type="dead_end" x="4300.00" y="38000.00" incLanes="" intLanes="" shape="4300.00,38000.00"/>
    <junction id="J29" type="dead_end" x="-100.00" y="11700.00" incLanes="-E34_0 -E34_1 -E34_2 -E34_3" intLanes="" shape="-100.00,11700.00 -112.80,11700.00 -100.00,11700.00"/>
    <junction id="J32" type="dead_end" x="3000.00" y="10200.00" incLanes="" intLanes="" shape="3000.00,10200.00"/>
    <junction id="J33" type="dead_end" x="0.00" y="8100.00" incLanes="" intLanes="" shape="0.00,8100.00"/>
    <junction id="J34" type="dead_end" x="0.00" y="11700.00" incLanes="" intLanes="" shape="0.00,11700.00"/>
    <junction id="J35" type="traffic_light" x="-100.00" y="24200.00" incLanes="-E37_0 -E37_1 -E37_2 -E37_3 E34_0 E34_1 E34_2 E34_3" intLanes=":J35_0_0 :J35_0_1 :J35_0_2 :J35_0_3 :J35_4_0 :J35_4_1 :J35_4_2 :J35_4_3 :J35_8_0 :J35_8_1 :J35_8_2 :J35_11_0 :J35_11_1 :J35_11_2 :J35_11_3" shape="-112.80,24204.00 -87.20,24204.00 -86.76,24201.78 -86.20,24201.00 -85.42,24200.44 -84.42,24200.11 -83.20,24200.00 -83.20,24187.20 -85.42,24186.76 -86.20,24186.20 -86.76,24185.42 -87.09,24184.42 -87.20,24183.20 -112.80,24183.20">
        <request index="0"  response="000000000000000" foes="000000000000000" cont="0"/>
        <request index="1"  response="000000000000000" foes="000000000000000" cont="0"/>
        <request index="2"  response="000000000000000" foes="000000000000000" cont="0"/>
        <request index="3"  response="000000000000000" foes="000000000000000" cont="0"/>
        <request index="4"  response="111111100000000" foes="111111100000000" cont="0"/>
        <request index="5"  response="111111100000000" foes="111111100000000" cont="0"/>
        <request index="6"  response="111111100000000" foes="111111100000000" cont="0"/>
        <request index="7"  response="111111100000000" foes="111111100000000" cont="0"/>
        <request index="8"  response="000000000000000" foes="000000011110000" cont="0"/>
        <request index="9"  response="000000000000000" foes="000000011110000" cont="0"/>
        <request index="10" response="000000000000000" foes="000000011110000" cont="0"/>
        <request index="11" response="000000000000000" foes="000000011110000" cont="0"/>
        <request index="12" response="000000000000000" foes="000000011110000" cont="0"/>
        <request index="13" response="000000000000000" foes="000000011110000" cont="0"/>
        <request index="14" response="000000000000000" foes="000000011110000" cont="0"/>
    </junction>
    <junction id="J36" type="dead_end" x="3000.00" y="24200.00" incLanes="E35_0 E35_1 E35_2 E35_3" intLanes="" shape="3000.00,24187.20 3000.00,24200.00"/>
    <junction id="J37" type="dead_end" x="-3400.00" y="24200.00" incLanes="" intLanes="" shape="-3400.00,24200.00"/>
    <junction id="J38" type="priority" x="-100.00" y="28600.00" incLanes="-E8_0 -E8_1 -E8_2 -E8_3 E37_0 E37_1 E37_2 E37_3" intLanes=":J38_0_0 :J38_0_1 :J38_0_2 :J38_0_3 :J38_4_0 :J38_4_1 :J38_4_2 :J38_4_3" shape="-112.80,28600.00 -87.20,28600.00 -112.80,28600.00">
        <request index="0" response="00000000" foes="00000000" cont="0"/>
        <request index="1" response="00000000" foes="00000000" cont="0"/>
        <request index="2" response="00000000" foes="00000000" cont="0"/>
        <request index="3" response="00000000" foes="00000000" cont="0"/>
        <request index="4" response="00000000" foes="00000000" cont="0"/>
        <request index="5" response="00000000" foes="00000000" cont="0"/>
        <request index="6" response="00000000" foes="00000000" cont="0"/>
        <request index="7" response="00000000" foes="00000000" cont="0"/>
    </junction>
    <junction id="J39" type="dead_end" x="-100.00" y="40800.00" incLanes="" intLanes="" shape="-100.00,40800.00"/>
    <junction id="J40" type="dead_end" x="-4400.00" y="38000.00" incLanes="" intLanes="" shape="-4400.00,38000.00"/>
    <junction id="J42" type="dead_end" x="-100.00" y="3000.00" incLanes="" intLanes="" shape="-100.00,3000.00"/>
    <junction id="J6" type="dead_end" x="-100.00" y="32000.00" incLanes="E8_0 E8_1 E8_2 E8_3" intLanes="" shape="-100.00,32000.00 -87.20,32000.00 -100.00,32000.00"/>
    <junction id="J8" type="dead_end" x="3000.00" y="-1400.00" incLanes="" intLanes="" shape="3000.00,-1400.00"/>

    <connection from="-E37" to="-E34" fromLane="0" toLane="0" via=":J35_0_0" tl="J35" linkIndex="0" dir="s" state="O"/>
    <connection from="-E37" to="-E34" fromLane="1" toLane="1" via=":J35_0_1" tl="J35" linkIndex="1" dir="s" state="O"/>
    <connection from="-E37" to="-E34" fromLane="2" toLane="2" via=":J35_0_2" tl="J35" linkIndex="2" dir="s" state="O"/>
    <connection from="-E37" to="-E34" fromLane="3" toLane="3" via=":J35_0_3" tl="J35" linkIndex="3" dir="s" state="O"/>
    <connection from="-E37" to="E35" fromLane="3" toLane="0" via=":J35_4_0" tl="J35" linkIndex="7" dir="l" state="o"/>
    <connection from="-E37" to="E35" fromLane="3" toLane="1" via=":J35_4_1" tl="J35" linkIndex="6" dir="l" state="o"/>
    <connection from="-E37" to="E35" fromLane="3" toLane="2" via=":J35_4_2" tl="J35" linkIndex="4" dir="l" state="o"/>
    <connection from="-E37" to="E35" fromLane="3" toLane="3" via=":J35_4_3" tl="J35" linkIndex="5" dir="l" state="o"/>
    <connection from="-E8" to="-E37" fromLane="0" toLane="0" via=":J38_0_0" dir="s" state="M"/>
    <connection from="-E8" to="-E37" fromLane="1" toLane="1" via=":J38_0_1" dir="s" state="M"/>
    <connection from="-E8" to="-E37" fromLane="2" toLane="2" via=":J38_0_2" dir="s" state="M"/>
    <connection from="-E8" to="-E37" fromLane="3" toLane="3" via=":J38_0_3" dir="s" state="M"/>
    <connection from="E34" to="E35" fromLane="0" toLane="0" via=":J35_8_0" tl="J35" linkIndex="8" dir="r" state="O"/>
    <connection from="E34" to="E35" fromLane="0" toLane="1" via=":J35_8_1" tl="J35" linkIndex="9" dir="r" state="O"/>
    <connection from="E34" to="E35" fromLane="0" toLane="2" via=":J35_8_2" tl="J35" linkIndex="10" dir="r" state="O"/>
    <connection from="E34" to="E37" fromLane="0" toLane="0" via=":J35_11_0" tl="J35" linkIndex="11" dir="s" state="O"/>
    <connection from="E34" to="E37" fromLane="1" toLane="1" via=":J35_11_1" tl="J35" linkIndex="12" dir="s" state="O"/>
    <connection from="E34" to="E37" fromLane="2" toLane="2" via=":J35_11_2" tl="J35" linkIndex="13" dir="s" state="O"/>
    <connection from="E34" to="E37" fromLane="3" toLane="3" via=":J35_11_3" tl="J35" linkIndex="14" dir="s" state="O"/>
    <connection from="E37" to="E8" fromLane="0" toLane="0" via=":J38_4_0" dir="s" state="M"/>
    <connection from="E37" to="E8" fromLane="1" toLane="1" via=":J38_4_1" dir="s" state="M"/>
    <connection from="E37" to="E8" fromLane="2" toLane="2" via=":J38_4_2" dir="s" state="M"/>
    <connection from="E37" to="E8" fromLane="3" toLane="3" via=":J38_4_3" dir="s" state="M"/>

    <connection from=":J35_0" to="-E34" fromLane="0" toLane="0" dir="s" state="M"/>
    <connection from=":J35_0" to="-E34" fromLane="1" toLane="1" dir="s" state="M"/>
    <connection from=":J35_0" to="-E34" fromLane="2" toLane="2" dir="s" state="M"/>
    <connection from=":J35_0" to="-E34" fromLane="3" toLane="3" dir="s" state="M"/>
    <connection from=":J35_4" to="E35" fromLane="0" toLane="0" dir="l" state="M"/>
    <connection from=":J35_4" to="E35" fromLane="1" toLane="1" dir="l" state="M"/>
    <connection from=":J35_4" to="E35" fromLane="2" toLane="2" dir="l" state="M"/>
    <connection from=":J35_4" to="E35" fromLane="3" toLane="3" dir="l" state="M"/>
    <connection from=":J35_8" to="E35" fromLane="0" toLane="0" dir="r" state="M"/>
    <connection from=":J35_8" to="E35" fromLane="1" toLane="1" dir="r" state="M"/>
    <connection from=":J35_8" to="E35" fromLane="2" toLane="2" dir="r" state="M"/>
    <connection from=":J35_11" to="E37" fromLane="0" toLane="0" dir="s" state="M"/>
    <connection from=":J35_11" to="E37" fromLane="1" toLane="1" dir="s" state="M"/>
    <connection from=":J35_11" to="E37" fromLane="2" toLane="2" dir="s" state="M"/>
    <connection from=":J35_11" to="E37" fromLane="3" toLane="3" dir="s" state="M"/>
    <connection from=":J38_0" to="-E37" fromLane="0" toLane="0" dir="s" state="M"/>
    <connection from=":J38_0" to="-E37" fromLane="1" toLane="1" dir="s" state="M"/>
    <connection from=":J38_0" to="-E37" fromLane="2" toLane="2" dir="s" state="M"/>
    <connection from=":J38_0" to="-E37" fromLane="3" toLane="3" dir="s" state="M"/>
    <connection from=":J38_4" to="E8" fromLane="0" toLane="0" dir="s" state="M"/>
    <connection from=":J38_4" to="E8" fromLane="1" toLane="1" dir="s" state="M"/>
    <connection from=":J38_4" to="E8" fromLane="2" toLane="2" dir="s" state="M"/>
    <connection from=":J38_4" to="E8" fromLane="3" toLane="3" dir="s" state="M"/>

</net>
