<?xml version="1.0" encoding="UTF-8"?>

<!-- generated on 2022-06-03 18:13:19 by Eclipse SUMO netedit Version 1.13.0
<configuration xmlns:xsi="http://www.w3.org/2001/XMLSchema-instance" xsi:noNamespaceSchemaLocation="http://sumo.dlr.de/xsd/netconvertConfiguration.xsd">

    <input>
        <sumo-net-file value="PG.net.xml"/>
    </input>

    <output>
        <output-file value="PG.net.xml"/>
    </output>

    <processing>
        <geometry.min-radius.fix.railways value="false"/>
        <geometry.max-grade.fix value="false"/>
        <offset.disable-normalization value="true"/>
        <lefthand value="false"/>
    </processing>

    <junctions>
        <no-turnarounds value="true"/>
        <junctions.corner-detail value="5"/>
        <junctions.limit-turn-speed value="5.5"/>
        <rectangular-lane-cut value="false"/>
    </junctions>

    <pedestrian>
        <walkingareas value="false"/>
    </pedestrian>

    <report>
        <aggregate-warnings value="5"/>
    </report>

</configuration>
-->

<net version="1.9" junctionCornerDetail="5" limitTurnSpeed="5.50" xmlns:xsi="http://www.w3.org/2001/XMLSchema-instance" xsi:noNamespaceSchemaLocation="http://sumo.dlr.de/xsd/net_file.xsd">

    <location netOffset="0.00,0.00" convBoundary="-4400.00,-3000.00,4500.00,40800.00" origBoundary="-10000000000.00,-10000000000.00,10000000000.00,10000000000.00" projParameter="!"/>

    <edge id=":PG_0" function="internal">
        <lane id=":PG_0_0" index="0" speed="16.67" length="21.12" shape="-114.40,24204.00 -113.90,24197.79 -112.80,24193.60 -111.70,24189.41 -111.20,24183.20"/>
        <lane id=":PG_0_1" index="1" speed="16.67" length="21.12" shape="-111.20,24204.00 -110.70,24197.79 -109.60,24193.60 -108.50,24189.41 -108.00,24183.20"/>
        <lane id=":PG_0_2" index="2" speed="16.67" length="21.12" shape="-108.00,24204.00 -107.50,24197.79 -106.40,24193.60 -105.30,24189.41 -104.80,24183.20"/>
        <lane id=":PG_0_3" index="3" speed="16.67" length="21.12" shape="-104.80,24204.00 -104.30,24197.79 -103.20,24193.60 -102.10,24189.41 -101.60,24183.20"/>
    </edge>
    <edge id=":PG_4" function="internal">
        <lane id=":PG_4_0" index="0" speed="10.88" length="27.14" shape="-101.60,24204.00 -100.45,24197.35 -97.00,24192.60 -91.25,24189.75 -83.20,24188.80"/>
        <lane id=":PG_4_1" index="1" speed="10.41" length="24.73" shape="-101.60,24204.00 -100.45,24198.75 -97.00,24195.00 -91.25,24192.75 -83.20,24192.00"/>
        <lane id=":PG_4_2" index="2" speed="9.94" length="22.48" shape="-101.60,24204.00 -100.45,24200.15 -97.00,24197.40 -91.25,24195.75 -83.20,24195.20"/>
        <lane id=":PG_4_3" index="3" speed="9.51" length="20.48" shape="-101.60,24204.00 -100.45,24201.55 -97.00,24199.80 -91.25,24198.75 -83.20,24198.40"/>
    </edge>
    <edge id=":PG_8" function="internal">
        <lane id=":PG_8_0" index="0" speed="6.51" length="9.03" shape="-88.80,24183.20 -88.45,24185.65 -87.40,24187.40 -85.65,24188.45 -83.20,24188.80"/>
        <lane id=":PG_8_1" index="1" speed="7.33" length="11.73" shape="-88.80,24183.20 -88.45,24187.05 -87.40,24189.80 -85.65,24191.45 -83.20,24192.00"/>
        <lane id=":PG_8_2" index="2" speed="8.10" length="14.57" shape="-88.80,24183.20 -88.45,24188.45 -87.40,24192.20 -85.65,24194.45 -83.20,24195.20"/>
    </edge>
    <edge id=":PG_11" function="internal">
        <lane id=":PG_11_0" index="0" speed="15.28" length="20.80" shape="-88.80,24183.20 -88.80,24204.00"/>
        <lane id=":PG_11_1" index="1" speed="15.28" length="20.80" shape="-92.00,24183.20 -92.00,24204.00"/>
        <lane id=":PG_11_2" index="2" speed="15.28" length="20.80" shape="-95.20,24183.20 -95.20,24204.00"/>
        <lane id=":PG_11_3" index="3" speed="15.28" length="20.80" shape="-98.40,24183.20 -98.40,24204.00"/>
    </edge>

    <edge id="-E34" from="PG" to="J29" priority="-1" length="1000.00">
        <lane id="-E34_0" index="0" speed="16.67" length="1000.00" shape="-111.20,24183.20 -111.20,23200.00"/>
        <lane id="-E34_1" index="1" speed="16.67" length="1000.00" shape="-108.00,24183.20 -108.00,23200.00"/>
        <lane id="-E34_2" index="2" speed="16.67" length="1000.00" shape="-104.80,24183.20 -104.80,23200.00"/>
        <lane id="-E34_3" index="3" speed="16.67" length="1000.00" shape="-101.60,24183.20 -101.60,23200.00"/>
    </edge>
    <edge id="-E37" from="J38" to="PG" priority="-1" length="1000.00">
        <lane id="-E37_0" index="0" speed="16.67" length="1000.00" shape="-114.40,25200.00 -114.40,24204.00"/>
        <lane id="-E37_1" index="1" speed="16.67" length="1000.00" shape="-111.20,25200.00 -111.20,24204.00"/>
        <lane id="-E37_2" index="2" speed="16.67" length="1000.00" shape="-108.00,25200.00 -108.00,24204.00"/>
        <lane id="-E37_3" index="3" speed="16.67" length="1000.00" shape="-104.80,25200.00 -104.80,24204.00"/>
        <lane id="-E37_4" index="4" speed="16.67" length="1000.00" shape="-101.60,25200.00 -101.60,24204.00"/>
    </edge>
    <edge id="E34" from="J29" to="PG" priority="-1" length="1000.00">
        <lane id="E34_0" index="0" speed="16.67" length="1000.00" shape="-88.80,23200.00 -88.80,24183.20"/>
        <lane id="E34_1" index="1" speed="16.67" length="1000.00" shape="-92.00,23200.00 -92.00,24183.20"/>
        <lane id="E34_2" index="2" speed="16.67" length="1000.00" shape="-95.20,23200.00 -95.20,24183.20"/>
        <lane id="E34_3" index="3" speed="16.67" length="1000.00" shape="-98.40,23200.00 -98.40,24183.20"/>
    </edge>
    <edge id="E35" from="PG" to="J36" priority="-1" length="1000.00">
        <lane id="E35_0" index="0" speed="13.89" length="1000.00" shape="-83.20,24188.80 900.00,24188.80"/>
        <lane id="E35_1" index="1" speed="13.89" length="1000.00" shape="-83.20,24192.00 900.00,24192.00"/>
        <lane id="E35_2" index="2" speed="13.89" length="1000.00" shape="-83.20,24195.20 900.00,24195.20"/>
        <lane id="E35_3" index="3" speed="13.89" length="1000.00" shape="-83.20,24198.40 900.00,24198.40"/>
    </edge>
    <edge id="E37" from="PG" to="J38" priority="-1" length="1000.00">
        <lane id="E37_0" index="0" speed="13.89" length="1000.00" shape="-88.80,24204.00 -88.80,25200.00"/>
        <lane id="E37_1" index="1" speed="13.89" length="1000.00" shape="-92.00,24204.00 -92.00,25200.00"/>
        <lane id="E37_2" index="2" speed="13.89" length="1000.00" shape="-95.20,24204.00 -95.20,25200.00"/>
        <lane id="E37_3" index="3" speed="13.89" length="1000.00" shape="-98.40,24204.00 -98.40,25200.00"/>
    </edge>

    <tlLogic id="PG" type="static" programID="0" offset="0">
        <phase duration="10" state="GGGGrrrrGGGGGG"/>
        <phase duration="5"  state="GGGGrrrryyyyyy"/>
        <phase duration="10" state="GGGGGGGGrrrrrr"/>
        <phase duration="5"  state="yyyyGGGGrrrrrr"/>
        <phase duration="10" state="rrrrGGGGrrrrrr"/>
        <phase duration="5"  state="rrrryyyyrrrrrr"/>
    </tlLogic>

    <junction id="J10" type="dead_end" x="-3100.00" y="-1400.00" incLanes="" intLanes="" shape="-3100.00,-1400.00"/>
    <junction id="J11" type="dead_end" x="-100.00" y="-3000.00" incLanes="" intLanes="" shape="-100.00,-3000.00"/>
    <junction id="J14" type="dead_end" x="4500.00" y="32000.00" incLanes="" intLanes="" shape="4500.00,32000.00"/>
    <junction id="J16" type="dead_end" x="3000.00" y="2500.00" incLanes="" intLanes="" shape="3000.00,2500.00"/>
    <junction id="J17" type="dead_end" x="-3100.00" y="2500.00" incLanes="" intLanes="" shape="-3100.00,2500.00"/>
    <junction id="J20" type="dead_end" x="-100.00" y="3000.00" incLanes="" intLanes="" shape="-100.00,3000.00"/>
    <junction id="J21" type="dead_end" x="3200.00" y="6900.00" incLanes="" intLanes="" shape="3200.00,6900.00"/>
    <junction id="J22" type="dead_end" x="-3100.00" y="6900.00" incLanes="" intLanes="" shape="-3100.00,6900.00"/>
    <junction id="J26" type="dead_end" x="-3900.00" y="10200.00" incLanes="" intLanes="" shape="-3900.00,10200.00"/>
    <junction id="J27" type="dead_end" x="-100.00" y="13300.00" incLanes="" intLanes="" shape="-100.00,13300.00"/>
    <junction id="J28" type="dead_end" x="4300.00" y="38000.00" incLanes="" intLanes="" shape="4300.00,38000.00"/>
    <junction id="J29" type="dead_end" x="-100.00" y="23200.00" incLanes="-E34_0 -E34_1 -E34_2 -E34_3" intLanes="" shape="-100.00,23200.00 -112.80,23200.00 -100.00,23200.00"/>
    <junction id="J32" type="dead_end" x="3000.00" y="10200.00" incLanes="" intLanes="" shape="3000.00,10200.00"/>
    <junction id="J33" type="dead_end" x="0.00" y="8100.00" incLanes="" intLanes="" shape="0.00,8100.00"/>
    <junction id="J34" type="dead_end" x="0.00" y="11700.00" incLanes="" intLanes="" shape="0.00,11700.00"/>
    <junction id="J36" type="dead_end" x="900.00" y="24200.00" incLanes="E35_0 E35_1 E35_2 E35_3" intLanes="" shape="900.00,24187.20 900.00,24200.00"/>
    <junction id="J37" type="dead_end" x="-3400.00" y="24200.00" incLanes="" intLanes="" shape="-3400.00,24200.00"/>
    <junction id="J38" type="dead_end" x="-100.00" y="25200.00" incLanes="E37_0 E37_1 E37_2 E37_3" intLanes="" shape="-100.00,25200.00 -87.20,25200.00 -100.00,25200.00"/>
    <junction id="J39" type="dead_end" x="-100.00" y="40800.00" incLanes="" intLanes="" shape="-100.00,40800.00"/>
    <junction id="J40" type="dead_end" x="-4400.00" y="38000.00" incLanes="" intLanes="" shape="-4400.00,38000.00"/>
    <junction id="J42" type="dead_end" x="-100.00" y="3000.00" incLanes="" intLanes="" shape="-100.00,3000.00"/>
    <junction id="J8" type="dead_end" x="3000.00" y="-1400.00" incLanes="" intLanes="" shape="3000.00,-1400.00"/>
    <junction id="PG" type="traffic_light" x="-100.00" y="24200.00" incLanes="-E37_0 -E37_1 -E37_2 -E37_3 -E37_4 E34_0 E34_1 E34_2 E34_3" intLanes=":PG_0_0 :PG_0_1 :PG_0_2 :PG_0_3 :PG_4_0 :PG_4_1 :PG_4_2 :PG_4_3 :PG_8_0 :PG_8_1 :PG_8_2 :PG_11_0 :PG_11_1 :PG_11_2 :PG_11_3" shape="-116.00,24204.00 -87.20,24204.00 -86.76,24201.78 -86.20,24201.00 -85.42,24200.44 -84.42,24200.11 -83.20,24200.00 -83.20,24187.20 -85.42,24186.76 -86.20,24186.20 -86.76,24185.42 -87.09,24184.42 -87.20,24183.20 -112.80,24183.20 -113.04,24187.66 -113.63,24190.93 -115.17,24196.27 -115.76,24199.54">
        <request index="0"  response="000000000000000" foes="000000000000000" cont="0"/>
        <request index="1"  response="000000000000000" foes="000000000000000" cont="0"/>
        <request index="2"  response="000000000000000" foes="000000000000000" cont="0"/>
        <request index="3"  response="000000000000000" foes="000000000000000" cont="0"/>
        <request index="4"  response="111100000000000" foes="111111100000000" cont="0"/>
        <request index="5"  response="111100000000000" foes="111111100000000" cont="0"/>
        <request index="6"  response="111100000000000" foes="111111100000000" cont="0"/>
        <request index="7"  response="111100000000000" foes="111111100000000" cont="0"/>
        <request index="8"  response="000000011110000" foes="000000011110000" cont="0"/>
        <request index="9"  response="000000011110000" foes="000000011110000" cont="0"/>
        <request index="10" response="000000011110000" foes="000000011110000" cont="0"/>
        <request index="11" response="000000000000000" foes="000000011110000" cont="0"/>
        <request index="12" response="000000000000000" foes="000000011110000" cont="0"/>
        <request index="13" response="000000000000000" foes="000000011110000" cont="0"/>
        <request index="14" response="000000000000000" foes="000000011110000" cont="0"/>
    </junction>

    <connection from="-E37" to="-E34" fromLane="0" toLane="0" via=":PG_0_0" tl="PG" linkIndex="0" dir="s" state="O"/>
    <connection from="-E37" to="-E34" fromLane="1" toLane="1" via=":PG_0_1" tl="PG" linkIndex="1" dir="s" state="O"/>
    <connection from="-E37" to="-E34" fromLane="2" toLane="2" via=":PG_0_2" tl="PG" linkIndex="2" dir="s" state="O"/>
    <connection from="-E37" to="-E34" fromLane="3" toLane="3" via=":PG_0_3" tl="PG" linkIndex="3" dir="s" state="O"/>
    <connection from="-E37" to="E35" fromLane="4" toLane="0" via=":PG_4_0" tl="PG" linkIndex="7" dir="l" state="o"/>
    <connection from="-E37" to="E35" fromLane="4" toLane="1" via=":PG_4_1" tl="PG" linkIndex="6" dir="l" state="o"/>
    <connection from="-E37" to="E35" fromLane="4" toLane="2" via=":PG_4_2" tl="PG" linkIndex="4" dir="l" state="o"/>
    <connection from="-E37" to="E35" fromLane="4" toLane="3" via=":PG_4_3" tl="PG" linkIndex="5" dir="l" state="o"/>
    <connection from="E34" to="E35" fromLane="0" toLane="0" via=":PG_8_0" tl="PG" linkIndex="8" dir="r" state="o"/>
    <connection from="E34" to="E35" fromLane="0" toLane="1" via=":PG_8_1" tl="PG" linkIndex="9" dir="r" state="o"/>
    <connection from="E34" to="E35" fromLane="0" toLane="2" uncontrolled="1" via=":PG_8_2" dir="r" state="m"/>
    <connection from="E34" to="E37" fromLane="0" toLane="0" via=":PG_11_0" tl="PG" linkIndex="10" dir="s" state="O"/>
    <connection from="E34" to="E37" fromLane="1" toLane="1" via=":PG_11_1" tl="PG" linkIndex="11" dir="s" state="O"/>
    <connection from="E34" to="E37" fromLane="2" toLane="2" via=":PG_11_2" tl="PG" linkIndex="12" dir="s" state="O"/>
    <connection from="E34" to="E37" fromLane="3" toLane="3" via=":PG_11_3" tl="PG" linkIndex="13" dir="s" state="O"/>

    <connection from=":PG_0" to="-E34" fromLane="0" toLane="0" dir="s" state="M"/>
    <connection from=":PG_0" to="-E34" fromLane="1" toLane="1" dir="s" state="M"/>
    <connection from=":PG_0" to="-E34" fromLane="2" toLane="2" dir="s" state="M"/>
    <connection from=":PG_0" to="-E34" fromLane="3" toLane="3" dir="s" state="M"/>
    <connection from=":PG_4" to="E35" fromLane="0" toLane="0" dir="l" state="M"/>
    <connection from=":PG_4" to="E35" fromLane="1" toLane="1" dir="l" state="M"/>
    <connection from=":PG_4" to="E35" fromLane="2" toLane="2" dir="l" state="M"/>
    <connection from=":PG_4" to="E35" fromLane="3" toLane="3" dir="l" state="M"/>
    <connection from=":PG_8" to="E35" fromLane="0" toLane="0" dir="r" state="M"/>
    <connection from=":PG_8" to="E35" fromLane="1" toLane="1" dir="r" state="M"/>
    <connection from=":PG_8" to="E35" fromLane="2" toLane="2" dir="r" state="M"/>
    <connection from=":PG_11" to="E37" fromLane="0" toLane="0" dir="s" state="M"/>
    <connection from=":PG_11" to="E37" fromLane="1" toLane="1" dir="s" state="M"/>
    <connection from=":PG_11" to="E37" fromLane="2" toLane="2" dir="s" state="M"/>
    <connection from=":PG_11" to="E37" fromLane="3" toLane="3" dir="s" state="M"/>

</net>
