<routes>
    <vType accel="0.8" id="standard_car" decel="4.5" length="5.0" minGap="2.5" maxSpeed="16.67" sigma="0.5" />
    
    <route id="-E37_to_-E34" edges="-E37 -E34" />
    <route id="-E37_to_E35" edges="-E37 E35" />
    <route id="E34_to_E35" edges="E34 E35" />
    <route id="E34_to_E37" edges="E34 E37" />
    <vehicle id="E34_to_E35_0" type="standard_car" route="E34_to_E35" depart="8.0" departLane="allowed" />
    <vehicle id="E34_to_E37_1" type="standard_car" route="E34_to_E37" depart="8.0" departLane="allowed" />
    <vehicle id="E34_to_E35_2" type="standard_car" route="E34_to_E35" depart="66.0" departLane="allowed" />
    <vehicle id="-E37_to_-E34_3" type="standard_car" route="-E37_to_-E34" depart="100.0" departLane="allowed" />
    <vehicle id="-E37_to_-E34_4" type="standard_car" route="-E37_to_-E34" depart="119.0" departLane="allowed" />
    <vehicle id="E34_to_E37_5" type="standard_car" route="E34_to_E37" depart="122.0" departLane="allowed" />
    <vehicle id="E34_to_E35_6" type="standard_car" route="E34_to_E35" depart="122.0" departLane="allowed" />
    <vehicle id="-E37_to_E35_7" type="standard_car" route="-E37_to_E35" depart="146.0" departLane="allowed" />
    <vehicle id="E34_to_E37_8" type="standard_car" route="E34_to_E37" depart="149.0" departLane="allowed" />
    <vehicle id="-E37_to_-E34_9" type="standard_car" route="-E37_to_-E34" depart="149.0" departLane="allowed" />
    <vehicle id="E34_to_E37_10" type="standard_car" route="E34_to_E37" depart="169.0" departLane="allowed" />
    <vehicle id="E34_to_E35_11" type="standard_car" route="E34_to_E35" depart="213.0" departLane="allowed" />
    <vehicle id="E34_to_E37_12" type="standard_car" route="E34_to_E37" depart="214.0" departLane="allowed" />
    <vehicle id="-E37_to_-E34_13" type="standard_car" route="-E37_to_-E34" depart="219.0" departLane="allowed" />
    <vehicle id="-E37_to_-E34_14" type="standard_car" route="-E37_to_-E34" depart="222.0" departLane="allowed" />
    <vehicle id="E34_to_E37_15" type="standard_car" route="E34_to_E37" depart="225.0" departLane="allowed" />
    <vehicle id="E34_to_E37_16" type="standard_car" route="E34_to_E37" depart="227.0" departLane="allowed" />
    <vehicle id="-E37_to_-E34_17" type="standard_car" route="-E37_to_-E34" depart="279.0" departLane="allowed" />
    <vehicle id="E34_to_E35_18" type="standard_car" route="E34_to_E35" depart="305.0" departLane="allowed" />
    <vehicle id="-E37_to_-E34_19" type="standard_car" route="-E37_to_-E34" depart="305.0" departLane="allowed" />
    <vehicle id="-E37_to_E35_20" type="standard_car" route="-E37_to_E35" depart="322.0" departLane="allowed" />
    <vehicle id="E34_to_E37_21" type="standard_car" route="E34_to_E37" depart="326.0" departLane="allowed" />
    <vehicle id="-E37_to_E35_22" type="standard_car" route="-E37_to_E35" depart="326.0" departLane="allowed" />
    <vehicle id="E34_to_E35_23" type="standard_car" route="E34_to_E35" depart="342.0" departLane="allowed" />
    <vehicle id="-E37_to_-E34_24" type="standard_car" route="-E37_to_-E34" depart="347.0" departLane="allowed" />
    <vehicle id="-E37_to_-E34_25" type="standard_car" route="-E37_to_-E34" depart="353.0" departLane="allowed" />
    <vehicle id="-E37_to_E35_26" type="standard_car" route="-E37_to_E35" depart="356.0" departLane="allowed" />
    <vehicle id="E34_to_E37_27" type="standard_car" route="E34_to_E37" depart="361.0" departLane="allowed" />
    <vehicle id="E34_to_E37_28" type="standard_car" route="E34_to_E37" depart="363.0" departLane="allowed" />
    <vehicle id="-E37_to_-E34_29" type="standard_car" route="-E37_to_-E34" depart="364.0" departLane="allowed" />
    <vehicle id="-E37_to_-E34_30" type="standard_car" route="-E37_to_-E34" depart="372.0" departLane="allowed" />
    <vehicle id="-E37_to_-E34_31" type="standard_car" route="-E37_to_-E34" depart="372.0" departLane="allowed" />
    <vehicle id="E34_to_E37_32" type="standard_car" route="E34_to_E37" depart="373.0" departLane="allowed" />
    <vehicle id="-E37_to_-E34_33" type="standard_car" route="-E37_to_-E34" depart="379.0" departLane="allowed" />
    <vehicle id="-E37_to_-E34_34" type="standard_car" route="-E37_to_-E34" depart="380.0" departLane="allowed" />
    <vehicle id="E34_to_E37_35" type="standard_car" route="E34_to_E37" depart="390.0" departLane="allowed" />
    <vehicle id="E34_to_E37_36" type="standard_car" route="E34_to_E37" depart="394.0" departLane="allowed" />
    <vehicle id="E34_to_E37_37" type="standard_car" route="E34_to_E37" depart="400.0" departLane="allowed" />
    <vehicle id="E34_to_E37_38" type="standard_car" route="E34_to_E37" depart="403.0" departLane="allowed" />
    <vehicle id="E34_to_E37_39" type="standard_car" route="E34_to_E37" depart="404.0" departLane="allowed" />
    <vehicle id="-E37_to_-E34_40" type="standard_car" route="-E37_to_-E34" depart="409.0" departLane="allowed" />
    <vehicle id="-E37_to_E35_41" type="standard_car" route="-E37_to_E35" depart="412.0" departLane="allowed" />
    <vehicle id="-E37_to_-E34_42" type="standard_car" route="-E37_to_-E34" depart="414.0" departLane="allowed" />
    <vehicle id="E34_to_E37_43" type="standard_car" route="E34_to_E37" depart="427.0" departLane="allowed" />
    <vehicle id="E34_to_E37_44" type="standard_car" route="E34_to_E37" depart="442.0" departLane="allowed" />
    <vehicle id="-E37_to_-E34_45" type="standard_car" route="-E37_to_-E34" depart="443.0" departLane="allowed" />
    <vehicle id="-E37_to_E35_46" type="standard_car" route="-E37_to_E35" depart="459.0" departLane="allowed" />
    <vehicle id="E34_to_E35_47" type="standard_car" route="E34_to_E35" depart="461.0" departLane="allowed" />
    <vehicle id="E34_to_E35_48" type="standard_car" route="E34_to_E35" depart="463.0" departLane="allowed" />
    <vehicle id="-E37_to_-E34_49" type="standard_car" route="-E37_to_-E34" depart="469.0" departLane="allowed" />
    <vehicle id="E34_to_E37_50" type="standard_car" route="E34_to_E37" depart="470.0" departLane="allowed" />
    <vehicle id="-E37_to_-E34_51" type="standard_car" route="-E37_to_-E34" depart="472.0" departLane="allowed" />
    <vehicle id="-E37_to_-E34_52" type="standard_car" route="-E37_to_-E34" depart="480.0" departLane="allowed" />
    <vehicle id="-E37_to_-E34_53" type="standard_car" route="-E37_to_-E34" depart="502.0" departLane="allowed" />
    <vehicle id="E34_to_E37_54" type="standard_car" route="E34_to_E37" depart="507.0" departLane="allowed" />
    <vehicle id="E34_to_E35_55" type="standard_car" route="E34_to_E35" depart="508.0" departLane="allowed" />
    <vehicle id="E34_to_E37_56" type="standard_car" route="E34_to_E37" depart="509.0" departLane="allowed" />
    <vehicle id="-E37_to_E35_57" type="standard_car" route="-E37_to_E35" depart="509.0" departLane="allowed" />
    <vehicle id="-E37_to_-E34_58" type="standard_car" route="-E37_to_-E34" depart="510.0" departLane="allowed" />
    <vehicle id="E34_to_E37_59" type="standard_car" route="E34_to_E37" depart="512.0" departLane="allowed" />
    <vehicle id="-E37_to_-E34_60" type="standard_car" route="-E37_to_-E34" depart="515.0" departLane="allowed" />
    <vehicle id="-E37_to_-E34_61" type="standard_car" route="-E37_to_-E34" depart="517.0" departLane="allowed" />
    <vehicle id="-E37_to_-E34_62" type="standard_car" route="-E37_to_-E34" depart="518.0" departLane="allowed" />
    <vehicle id="E34_to_E37_63" type="standard_car" route="E34_to_E37" depart="531.0" departLane="allowed" />
    <vehicle id="E34_to_E35_64" type="standard_car" route="E34_to_E35" depart="533.0" departLane="allowed" />
    <vehicle id="E34_to_E35_65" type="standard_car" route="E34_to_E35" depart="541.0" departLane="allowed" />
    <vehicle id="-E37_to_-E34_66" type="standard_car" route="-E37_to_-E34" depart="548.0" departLane="allowed" />
    <vehicle id="E34_to_E35_67" type="standard_car" route="E34_to_E35" depart="551.0" departLane="allowed" />
    <vehicle id="-E37_to_E35_68" type="standard_car" route="-E37_to_E35" depart="561.0" departLane="allowed" />
    <vehicle id="-E37_to_-E34_69" type="standard_car" route="-E37_to_-E34" depart="564.0" departLane="allowed" />
    <vehicle id="E34_to_E35_70" type="standard_car" route="E34_to_E35" depart="569.0" departLane="allowed" />
    <vehicle id="-E37_to_E35_71" type="standard_car" route="-E37_to_E35" depart="571.0" departLane="allowed" />
    <vehicle id="-E37_to_-E34_72" type="standard_car" route="-E37_to_-E34" depart="575.0" departLane="allowed" />
    <vehicle id="E34_to_E37_73" type="standard_car" route="E34_to_E37" depart="575.0" departLane="allowed" />
    <vehicle id="E34_to_E35_74" type="standard_car" route="E34_to_E35" depart="581.0" departLane="allowed" />
    <vehicle id="-E37_to_-E34_75" type="standard_car" route="-E37_to_-E34" depart="582.0" departLane="allowed" />
    <vehicle id="-E37_to_E35_76" type="standard_car" route="-E37_to_E35" depart="585.0" departLane="allowed" />
    <vehicle id="-E37_to_-E34_77" type="standard_car" route="-E37_to_-E34" depart="588.0" departLane="allowed" />
    <vehicle id="E34_to_E37_78" type="standard_car" route="E34_to_E37" depart="588.0" departLane="allowed" />
    <vehicle id="-E37_to_E35_79" type="standard_car" route="-E37_to_E35" depart="589.0" departLane="allowed" />
    <vehicle id="-E37_to_-E34_80" type="standard_car" route="-E37_to_-E34" depart="595.0" departLane="allowed" />
    <vehicle id="E34_to_E37_81" type="standard_car" route="E34_to_E37" depart="596.0" departLane="allowed" />
    <vehicle id="E34_to_E37_82" type="standard_car" route="E34_to_E37" depart="597.0" departLane="allowed" />
    <vehicle id="-E37_to_-E34_83" type="standard_car" route="-E37_to_-E34" depart="601.0" departLane="allowed" />
    <vehicle id="E34_to_E37_84" type="standard_car" route="E34_to_E37" depart="602.0" departLane="allowed" />
    <vehicle id="-E37_to_-E34_85" type="standard_car" route="-E37_to_-E34" depart="602.0" departLane="allowed" />
    <vehicle id="-E37_to_-E34_86" type="standard_car" route="-E37_to_-E34" depart="602.0" departLane="allowed" />
    <vehicle id="E34_to_E37_87" type="standard_car" route="E34_to_E37" depart="604.0" departLane="allowed" />
    <vehicle id="-E37_to_-E34_88" type="standard_car" route="-E37_to_-E34" depart="606.0" departLane="allowed" />
    <vehicle id="-E37_to_-E34_89" type="standard_car" route="-E37_to_-E34" depart="611.0" departLane="allowed" />
    <vehicle id="-E37_to_-E34_90" type="standard_car" route="-E37_to_-E34" depart="614.0" departLane="allowed" />
    <vehicle id="E34_to_E37_91" type="standard_car" route="E34_to_E37" depart="615.0" departLane="allowed" />
    <vehicle id="-E37_to_-E34_92" type="standard_car" route="-E37_to_-E34" depart="619.0" departLane="allowed" />
    <vehicle id="-E37_to_-E34_93" type="standard_car" route="-E37_to_-E34" depart="622.0" departLane="allowed" />
    <vehicle id="-E37_to_-E34_94" type="standard_car" route="-E37_to_-E34" depart="622.0" departLane="allowed" />
    <vehicle id="E34_to_E37_95" type="standard_car" route="E34_to_E37" depart="626.0" departLane="allowed" />
    <vehicle id="E34_to_E37_96" type="standard_car" route="E34_to_E37" depart="627.0" departLane="allowed" />
    <vehicle id="E34_to_E35_97" type="standard_car" route="E34_to_E35" depart="631.0" departLane="allowed" />
    <vehicle id="-E37_to_E35_98" type="standard_car" route="-E37_to_E35" depart="640.0" departLane="allowed" />
    <vehicle id="E34_to_E37_99" type="standard_car" route="E34_to_E37" depart="642.0" departLane="allowed" />
    <vehicle id="E34_to_E37_100" type="standard_car" route="E34_to_E37" depart="643.0" departLane="allowed" />
    <vehicle id="-E37_to_E35_101" type="standard_car" route="-E37_to_E35" depart="647.0" departLane="allowed" />
    <vehicle id="-E37_to_E35_102" type="standard_car" route="-E37_to_E35" depart="647.0" departLane="allowed" />
    <vehicle id="-E37_to_-E34_103" type="standard_car" route="-E37_to_-E34" depart="652.0" departLane="allowed" />
    <vehicle id="-E37_to_E35_104" type="standard_car" route="-E37_to_E35" depart="656.0" departLane="allowed" />
    <vehicle id="E34_to_E37_105" type="standard_car" route="E34_to_E37" depart="659.0" departLane="allowed" />
    <vehicle id="E34_to_E37_106" type="standard_car" route="E34_to_E37" depart="663.0" departLane="allowed" />
    <vehicle id="-E37_to_-E34_107" type="standard_car" route="-E37_to_-E34" depart="664.0" departLane="allowed" />
    <vehicle id="E34_to_E35_108" type="standard_car" route="E34_to_E35" depart="666.0" departLane="allowed" />
    <vehicle id="-E37_to_E35_109" type="standard_car" route="-E37_to_E35" depart="678.0" departLane="allowed" />
    <vehicle id="E34_to_E37_110" type="standard_car" route="E34_to_E37" depart="679.0" departLane="allowed" />
    <vehicle id="-E37_to_E35_111" type="standard_car" route="-E37_to_E35" depart="680.0" departLane="allowed" />
    <vehicle id="-E37_to_-E34_112" type="standard_car" route="-E37_to_-E34" depart="681.0" departLane="allowed" />
    <vehicle id="-E37_to_-E34_113" type="standard_car" route="-E37_to_-E34" depart="684.0" departLane="allowed" />
    <vehicle id="E34_to_E37_114" type="standard_car" route="E34_to_E37" depart="686.0" departLane="allowed" />
    <vehicle id="E34_to_E35_115" type="standard_car" route="E34_to_E35" depart="686.0" departLane="allowed" />
    <vehicle id="-E37_to_-E34_116" type="standard_car" route="-E37_to_-E34" depart="687.0" departLane="allowed" />
    <vehicle id="E34_to_E37_117" type="standard_car" route="E34_to_E37" depart="687.0" departLane="allowed" />
    <vehicle id="-E37_to_-E34_118" type="standard_car" route="-E37_to_-E34" depart="695.0" departLane="allowed" />
    <vehicle id="E34_to_E37_119" type="standard_car" route="E34_to_E37" depart="707.0" departLane="allowed" />
    <vehicle id="-E37_to_-E34_120" type="standard_car" route="-E37_to_-E34" depart="710.0" departLane="allowed" />
    <vehicle id="E34_to_E37_121" type="standard_car" route="E34_to_E37" depart="710.0" departLane="allowed" />
    <vehicle id="-E37_to_-E34_122" type="standard_car" route="-E37_to_-E34" depart="713.0" departLane="allowed" />
    <vehicle id="E34_to_E35_123" type="standard_car" route="E34_to_E35" depart="715.0" departLane="allowed" />
    <vehicle id="-E37_to_-E34_124" type="standard_car" route="-E37_to_-E34" depart="715.0" departLane="allowed" />
    <vehicle id="-E37_to_-E34_125" type="standard_car" route="-E37_to_-E34" depart="716.0" departLane="allowed" />
    <vehicle id="-E37_to_E35_126" type="standard_car" route="-E37_to_E35" depart="717.0" departLane="allowed" />
    <vehicle id="E34_to_E37_127" type="standard_car" route="E34_to_E37" depart="717.0" departLane="allowed" />
    <vehicle id="-E37_to_-E34_128" type="standard_car" route="-E37_to_-E34" depart="718.0" departLane="allowed" />
    <vehicle id="-E37_to_-E34_129" type="standard_car" route="-E37_to_-E34" depart="725.0" departLane="allowed" />
    <vehicle id="-E37_to_-E34_130" type="standard_car" route="-E37_to_-E34" depart="729.0" departLane="allowed" />
    <vehicle id="-E37_to_-E34_131" type="standard_car" route="-E37_to_-E34" depart="731.0" departLane="allowed" />
    <vehicle id="E34_to_E37_132" type="standard_car" route="E34_to_E37" depart="731.0" departLane="allowed" />
    <vehicle id="E34_to_E37_133" type="standard_car" route="E34_to_E37" depart="734.0" departLane="allowed" />
    <vehicle id="E34_to_E37_134" type="standard_car" route="E34_to_E37" depart="735.0" departLane="allowed" />
    <vehicle id="E34_to_E35_135" type="standard_car" route="E34_to_E35" depart="736.0" departLane="allowed" />
    <vehicle id="-E37_to_-E34_136" type="standard_car" route="-E37_to_-E34" depart="737.0" departLane="allowed" />
    <vehicle id="-E37_to_E35_137" type="standard_car" route="-E37_to_E35" depart="738.0" departLane="allowed" />
    <vehicle id="-E37_to_-E34_138" type="standard_car" route="-E37_to_-E34" depart="746.0" departLane="allowed" />
    <vehicle id="-E37_to_-E34_139" type="standard_car" route="-E37_to_-E34" depart="747.0" departLane="allowed" />
    <vehicle id="-E37_to_-E34_140" type="standard_car" route="-E37_to_-E34" depart="748.0" departLane="allowed" />
    <vehicle id="-E37_to_-E34_141" type="standard_car" route="-E37_to_-E34" depart="750.0" departLane="allowed" />
    <vehicle id="-E37_to_-E34_142" type="standard_car" route="-E37_to_-E34" depart="752.0" departLane="allowed" />
    <vehicle id="-E37_to_-E34_143" type="standard_car" route="-E37_to_-E34" depart="754.0" departLane="allowed" />
    <vehicle id="-E37_to_E35_144" type="standard_car" route="-E37_to_E35" depart="755.0" departLane="allowed" />
    <vehicle id="E34_to_E37_145" type="standard_car" route="E34_to_E37" depart="757.0" departLane="allowed" />
    <vehicle id="E34_to_E37_146" type="standard_car" route="E34_to_E37" depart="757.0" departLane="allowed" />
    <vehicle id="E34_to_E37_147" type="standard_car" route="E34_to_E37" depart="757.0" departLane="allowed" />
    <vehicle id="E34_to_E37_148" type="standard_car" route="E34_to_E37" depart="758.0" departLane="allowed" />
    <vehicle id="E34_to_E35_149" type="standard_car" route="E34_to_E35" depart="760.0" departLane="allowed" />
    <vehicle id="-E37_to_-E34_150" type="standard_car" route="-E37_to_-E34" depart="763.0" departLane="allowed" />
    <vehicle id="E34_to_E35_151" type="standard_car" route="E34_to_E35" depart="765.0" departLane="allowed" />
    <vehicle id="-E37_to_E35_152" type="standard_car" route="-E37_to_E35" depart="767.0" departLane="allowed" />
    <vehicle id="-E37_to_E35_153" type="standard_car" route="-E37_to_E35" depart="767.0" departLane="allowed" />
    <vehicle id="-E37_to_E35_154" type="standard_car" route="-E37_to_E35" depart="771.0" departLane="allowed" />
    <vehicle id="E34_to_E37_155" type="standard_car" route="E34_to_E37" depart="772.0" departLane="allowed" />
    <vehicle id="-E37_to_-E34_156" type="standard_car" route="-E37_to_-E34" depart="779.0" departLane="allowed" />
    <vehicle id="-E37_to_E35_157" type="standard_car" route="-E37_to_E35" depart="787.0" departLane="allowed" />
    <vehicle id="E34_to_E35_158" type="standard_car" route="E34_to_E35" depart="787.0" departLane="allowed" />
    <vehicle id="E34_to_E37_159" type="standard_car" route="E34_to_E37" depart="791.0" departLane="allowed" />
    <vehicle id="-E37_to_-E34_160" type="standard_car" route="-E37_to_-E34" depart="791.0" departLane="allowed" />
    <vehicle id="-E37_to_-E34_161" type="standard_car" route="-E37_to_-E34" depart="791.0" departLane="allowed" />
    <vehicle id="E34_to_E37_162" type="standard_car" route="E34_to_E37" depart="791.0" departLane="allowed" />
    <vehicle id="E34_to_E35_163" type="standard_car" route="E34_to_E35" depart="803.0" departLane="allowed" />
    <vehicle id="-E37_to_-E34_164" type="standard_car" route="-E37_to_-E34" depart="815.0" departLane="allowed" />
    <vehicle id="E34_to_E35_165" type="standard_car" route="E34_to_E35" depart="819.0" departLane="allowed" />
    <vehicle id="-E37_to_-E34_166" type="standard_car" route="-E37_to_-E34" depart="820.0" departLane="allowed" />
    <vehicle id="-E37_to_-E34_167" type="standard_car" route="-E37_to_-E34" depart="826.0" departLane="allowed" />
    <vehicle id="E34_to_E37_168" type="standard_car" route="E34_to_E37" depart="826.0" departLane="allowed" />
    <vehicle id="E34_to_E37_169" type="standard_car" route="E34_to_E37" depart="828.0" departLane="allowed" />
    <vehicle id="-E37_to_-E34_170" type="standard_car" route="-E37_to_-E34" depart="829.0" departLane="allowed" />
    <vehicle id="E34_to_E37_171" type="standard_car" route="E34_to_E37" depart="832.0" departLane="allowed" />
    <vehicle id="-E37_to_-E34_172" type="standard_car" route="-E37_to_-E34" depart="834.0" departLane="allowed" />
    <vehicle id="-E37_to_-E34_173" type="standard_car" route="-E37_to_-E34" depart="834.0" departLane="allowed" />
    <vehicle id="E34_to_E35_174" type="standard_car" route="E34_to_E35" depart="839.0" departLane="allowed" />
    <vehicle id="-E37_to_-E34_175" type="standard_car" route="-E37_to_-E34" depart="846.0" departLane="allowed" />
    <vehicle id="E34_to_E37_176" type="standard_car" route="E34_to_E37" depart="848.0" departLane="allowed" />
    <vehicle id="-E37_to_E35_177" type="standard_car" route="-E37_to_E35" depart="849.0" departLane="allowed" />
    <vehicle id="-E37_to_-E34_178" type="standard_car" route="-E37_to_-E34" depart="852.0" departLane="allowed" />
    <vehicle id="E34_to_E37_179" type="standard_car" route="E34_to_E37" depart="853.0" departLane="allowed" />
    <vehicle id="E34_to_E37_180" type="standard_car" route="E34_to_E37" depart="859.0" departLane="allowed" />
    <vehicle id="-E37_to_-E34_181" type="standard_car" route="-E37_to_-E34" depart="861.0" departLane="allowed" />
    <vehicle id="-E37_to_E35_182" type="standard_car" route="-E37_to_E35" depart="862.0" departLane="allowed" />
    <vehicle id="-E37_to_-E34_183" type="standard_car" route="-E37_to_-E34" depart="862.0" departLane="allowed" />
    <vehicle id="-E37_to_-E34_184" type="standard_car" route="-E37_to_-E34" depart="863.0" departLane="allowed" />
    <vehicle id="E34_to_E37_185" type="standard_car" route="E34_to_E37" depart="863.0" departLane="allowed" />
    <vehicle id="E34_to_E35_186" type="standard_car" route="E34_to_E35" depart="865.0" departLane="allowed" />
    <vehicle id="E34_to_E37_187" type="standard_car" route="E34_to_E37" depart="869.0" departLane="allowed" />
    <vehicle id="-E37_to_-E34_188" type="standard_car" route="-E37_to_-E34" depart="878.0" departLane="allowed" />
    <vehicle id="-E37_to_-E34_189" type="standard_car" route="-E37_to_-E34" depart="878.0" departLane="allowed" />
    <vehicle id="E34_to_E35_190" type="standard_car" route="E34_to_E35" depart="879.0" departLane="allowed" />
    <vehicle id="E34_to_E37_191" type="standard_car" route="E34_to_E37" depart="879.0" departLane="allowed" />
    <vehicle id="-E37_to_-E34_192" type="standard_car" route="-E37_to_-E34" depart="889.0" departLane="allowed" />
    <vehicle id="-E37_to_-E34_193" type="standard_car" route="-E37_to_-E34" depart="889.0" departLane="allowed" />
    <vehicle id="E34_to_E35_194" type="standard_car" route="E34_to_E35" depart="891.0" departLane="allowed" />
    <vehicle id="-E37_to_-E34_195" type="standard_car" route="-E37_to_-E34" depart="893.0" departLane="allowed" />
    <vehicle id="-E37_to_-E34_196" type="standard_car" route="-E37_to_-E34" depart="894.0" departLane="allowed" />
    <vehicle id="-E37_to_-E34_197" type="standard_car" route="-E37_to_-E34" depart="901.0" departLane="allowed" />
    <vehicle id="E34_to_E37_198" type="standard_car" route="E34_to_E37" depart="902.0" departLane="allowed" />
    <vehicle id="-E37_to_-E34_199" type="standard_car" route="-E37_to_-E34" depart="902.0" departLane="allowed" />
    <vehicle id="E34_to_E37_200" type="standard_car" route="E34_to_E37" depart="902.0" departLane="allowed" />
    <vehicle id="-E37_to_-E34_201" type="standard_car" route="-E37_to_-E34" depart="904.0" departLane="allowed" />
    <vehicle id="E34_to_E37_202" type="standard_car" route="E34_to_E37" depart="920.0" departLane="allowed" />
    <vehicle id="E34_to_E35_203" type="standard_car" route="E34_to_E35" depart="922.0" departLane="allowed" />
    <vehicle id="E34_to_E37_204" type="standard_car" route="E34_to_E37" depart="922.0" departLane="allowed" />
    <vehicle id="E34_to_E37_205" type="standard_car" route="E34_to_E37" depart="924.0" departLane="allowed" />
    <vehicle id="E34_to_E35_206" type="standard_car" route="E34_to_E35" depart="924.0" departLane="allowed" />
    <vehicle id="E34_to_E37_207" type="standard_car" route="E34_to_E37" depart="927.0" departLane="allowed" />
    <vehicle id="E34_to_E35_208" type="standard_car" route="E34_to_E35" depart="931.0" departLane="allowed" />
    <vehicle id="E34_to_E37_209" type="standard_car" route="E34_to_E37" depart="931.0" departLane="allowed" />
    <vehicle id="E34_to_E35_210" type="standard_car" route="E34_to_E35" depart="932.0" departLane="allowed" />
    <vehicle id="E34_to_E37_211" type="standard_car" route="E34_to_E37" depart="932.0" departLane="allowed" />
    <vehicle id="E34_to_E37_212" type="standard_car" route="E34_to_E37" depart="933.0" departLane="allowed" />
    <vehicle id="-E37_to_-E34_213" type="standard_car" route="-E37_to_-E34" depart="935.0" departLane="allowed" />
    <vehicle id="E34_to_E37_214" type="standard_car" route="E34_to_E37" depart="936.0" departLane="allowed" />
    <vehicle id="-E37_to_E35_215" type="standard_car" route="-E37_to_E35" depart="936.0" departLane="allowed" />
    <vehicle id="-E37_to_E35_216" type="standard_car" route="-E37_to_E35" depart="937.0" departLane="allowed" />
    <vehicle id="-E37_to_E35_217" type="standard_car" route="-E37_to_E35" depart="941.0" departLane="allowed" />
    <vehicle id="E34_to_E37_218" type="standard_car" route="E34_to_E37" depart="942.0" departLane="allowed" />
    <vehicle id="-E37_to_-E34_219" type="standard_car" route="-E37_to_-E34" depart="948.0" departLane="allowed" />
    <vehicle id="-E37_to_-E34_220" type="standard_car" route="-E37_to_-E34" depart="951.0" departLane="allowed" />
    <vehicle id="E34_to_E37_221" type="standard_car" route="E34_to_E37" depart="954.0" departLane="allowed" />
    <vehicle id="-E37_to_-E34_222" type="standard_car" route="-E37_to_-E34" depart="957.0" departLane="allowed" />
    <vehicle id="-E37_to_-E34_223" type="standard_car" route="-E37_to_-E34" depart="962.0" departLane="allowed" />
    <vehicle id="-E37_to_E35_224" type="standard_car" route="-E37_to_E35" depart="963.0" departLane="allowed" />
    <vehicle id="-E37_to_-E34_225" type="standard_car" route="-E37_to_-E34" depart="964.0" departLane="allowed" />
    <vehicle id="-E37_to_-E34_226" type="standard_car" route="-E37_to_-E34" depart="967.0" departLane="allowed" />
    <vehicle id="E34_to_E35_227" type="standard_car" route="E34_to_E35" depart="970.0" departLane="allowed" />
    <vehicle id="-E37_to_-E34_228" type="standard_car" route="-E37_to_-E34" depart="971.0" departLane="allowed" />
    <vehicle id="E34_to_E37_229" type="standard_car" route="E34_to_E37" depart="971.0" departLane="allowed" />
    <vehicle id="-E37_to_-E34_230" type="standard_car" route="-E37_to_-E34" depart="971.0" departLane="allowed" />
    <vehicle id="E34_to_E37_231" type="standard_car" route="E34_to_E37" depart="971.0" departLane="allowed" />
    <vehicle id="E34_to_E37_232" type="standard_car" route="E34_to_E37" depart="975.0" departLane="allowed" />
    <vehicle id="-E37_to_-E34_233" type="standard_car" route="-E37_to_-E34" depart="978.0" departLane="allowed" />
    <vehicle id="E34_to_E37_234" type="standard_car" route="E34_to_E37" depart="979.0" departLane="allowed" />
    <vehicle id="E34_to_E37_235" type="standard_car" route="E34_to_E37" depart="983.0" departLane="allowed" />
    <vehicle id="E34_to_E37_236" type="standard_car" route="E34_to_E37" depart="985.0" departLane="allowed" />
    <vehicle id="E34_to_E37_237" type="standard_car" route="E34_to_E37" depart="987.0" departLane="allowed" />
    <vehicle id="-E37_to_E35_238" type="standard_car" route="-E37_to_E35" depart="992.0" departLane="allowed" />
    <vehicle id="-E37_to_-E34_239" type="standard_car" route="-E37_to_-E34" depart="992.0" departLane="allowed" />
    <vehicle id="-E37_to_E35_240" type="standard_car" route="-E37_to_E35" depart="993.0" departLane="allowed" />
    <vehicle id="-E37_to_E35_241" type="standard_car" route="-E37_to_E35" depart="996.0" departLane="allowed" />
    <vehicle id="E34_to_E37_242" type="standard_car" route="E34_to_E37" depart="997.0" departLane="allowed" />
    <vehicle id="-E37_to_E35_243" type="standard_car" route="-E37_to_E35" depart="998.0" departLane="allowed" />
    <vehicle id="E34_to_E37_244" type="standard_car" route="E34_to_E37" depart="998.0" departLane="allowed" />
    <vehicle id="E34_to_E37_245" type="standard_car" route="E34_to_E37" depart="1005.0" departLane="allowed" />
    <vehicle id="E34_to_E35_246" type="standard_car" route="E34_to_E35" depart="1008.0" departLane="allowed" />
    <vehicle id="-E37_to_E35_247" type="standard_car" route="-E37_to_E35" depart="1010.0" departLane="allowed" />
    <vehicle id="E34_to_E37_248" type="standard_car" route="E34_to_E37" depart="1015.0" departLane="allowed" />
    <vehicle id="E34_to_E37_249" type="standard_car" route="E34_to_E37" depart="1016.0" departLane="allowed" />
    <vehicle id="E34_to_E35_250" type="standard_car" route="E34_to_E35" depart="1016.0" departLane="allowed" />
    <vehicle id="E34_to_E35_251" type="standard_car" route="E34_to_E35" depart="1017.0" departLane="allowed" />
    <vehicle id="E34_to_E37_252" type="standard_car" route="E34_to_E37" depart="1017.0" departLane="allowed" />
    <vehicle id="-E37_to_-E34_253" type="standard_car" route="-E37_to_-E34" depart="1017.0" departLane="allowed" />
    <vehicle id="-E37_to_-E34_254" type="standard_car" route="-E37_to_-E34" depart="1025.0" departLane="allowed" />
    <vehicle id="E34_to_E37_255" type="standard_car" route="E34_to_E37" depart="1025.0" departLane="allowed" />
    <vehicle id="-E37_to_-E34_256" type="standard_car" route="-E37_to_-E34" depart="1026.0" departLane="allowed" />
    <vehicle id="E34_to_E35_257" type="standard_car" route="E34_to_E35" depart="1027.0" departLane="allowed" />
    <vehicle id="-E37_to_-E34_258" type="standard_car" route="-E37_to_-E34" depart="1028.0" departLane="allowed" />
    <vehicle id="-E37_to_-E34_259" type="standard_car" route="-E37_to_-E34" depart="1034.0" departLane="allowed" />
    <vehicle id="-E37_to_E35_260" type="standard_car" route="-E37_to_E35" depart="1040.0" departLane="allowed" />
    <vehicle id="-E37_to_-E34_261" type="standard_car" route="-E37_to_-E34" depart="1044.0" departLane="allowed" />
    <vehicle id="-E37_to_E35_262" type="standard_car" route="-E37_to_E35" depart="1044.0" departLane="allowed" />