<routes>
    <vType accel="0.8" id="standard_car" decel="4.5" length="5.0" minGap="2.5" maxSpeed="16.67" sigma="0.5" />
    
    <route id="-E37_to_-E34" edges="-E37 -E34" />
    <route id="-E37_to_E35" edges="-E37 E35" />
    <route id="E34_to_E35" edges="E34 E35" />
    <route id="E34_to_E37" edges="E34 E37" />
    <vehicles id="-E37_to_-E34_0" type="standard_car" route="-E37_to_-E34" depart="28.0" departLane="random" />
    <vehicles id="E34_to_E37_1" type="standard_car" route="E34_to_E37" depart="45.0" departLane="random" />
    <vehicle id="-E37_to_E35_2" type="standard_car" route="-E37_to_E35" depart="62.0" departLane="random" />
    <vehicles id="-E37_to_-E34_3" type="standard_car" route="-E37_to_-E34" depart="75.0" departLane="random" />
    <vehicles id="-E37_to_-E34_4" type="standard_car" route="-E37_to_-E34" depart="82.0" departLane="random" />
    <vehicles id="-E37_to_-E34_5" type="standard_car" route="-E37_to_-E34" depart="86.0" departLane="random" />
    <vehicle id="E34_to_E35_6" type="standard_car" route="E34_to_E35" depart="107.0" departLane="random" />
    <vehicles id="E34_to_E37_7" type="standard_car" route="E34_to_E37" depart="129.0" departLane="random" />
    <vehicles id="-E37_to_-E34_8" type="standard_car" route="-E37_to_-E34" depart="130.0" departLane="random" />
    <vehicles id="E34_to_E37_9" type="standard_car" route="E34_to_E37" depart="132.0" departLane="random" />
    <vehicles id="-E37_to_-E34_10" type="standard_car" route="-E37_to_-E34" depart="133.0" departLane="random" />
    <vehicle id="-E37_to_E35_11" type="standard_car" route="-E37_to_E35" depart="139.0" departLane="random" />
    <vehicles id="E34_to_E37_12" type="standard_car" route="E34_to_E37" depart="150.0" departLane="random" />
    <vehicles id="-E37_to_-E34_13" type="standard_car" route="-E37_to_-E34" depart="154.0" departLane="random" />
    <vehicle id="-E37_to_E35_14" type="standard_car" route="-E37_to_E35" depart="154.0" departLane="random" />
    <vehicles id="-E37_to_-E34_15" type="standard_car" route="-E37_to_-E34" depart="157.0" departLane="random" />
    <vehicle id="-E37_to_E35_16" type="standard_car" route="-E37_to_E35" depart="164.0" departLane="random" />
    <vehicle id="E34_to_E35_17" type="standard_car" route="E34_to_E35" depart="165.0" departLane="random" />
    <vehicles id="E34_to_E37_18" type="standard_car" route="E34_to_E37" depart="167.0" departLane="random" />
    <vehicles id="-E37_to_-E34_19" type="standard_car" route="-E37_to_-E34" depart="167.0" departLane="random" />
    <vehicles id="-E37_to_-E34_20" type="standard_car" route="-E37_to_-E34" depart="171.0" departLane="random" />
    <vehicles id="-E37_to_-E34_21" type="standard_car" route="-E37_to_-E34" depart="172.0" departLane="random" />
    <vehicle id="-E37_to_E35_22" type="standard_car" route="-E37_to_E35" depart="173.0" departLane="random" />
    <vehicles id="E34_to_E37_23" type="standard_car" route="E34_to_E37" depart="188.0" departLane="random" />
    <vehicles id="-E37_to_-E34_24" type="standard_car" route="-E37_to_-E34" depart="190.0" departLane="random" />
    <vehicles id="E34_to_E37_25" type="standard_car" route="E34_to_E37" depart="193.0" departLane="random" />
    <vehicles id="E34_to_E37_26" type="standard_car" route="E34_to_E37" depart="206.0" departLane="random" />
    <vehicles id="E34_to_E37_27" type="standard_car" route="E34_to_E37" depart="207.0" departLane="random" />
    <vehicle id="E34_to_E35_28" type="standard_car" route="E34_to_E35" depart="209.0" departLane="random" />
    <vehicles id="-E37_to_-E34_29" type="standard_car" route="-E37_to_-E34" depart="210.0" departLane="random" />
    <vehicles id="E34_to_E37_30" type="standard_car" route="E34_to_E37" depart="216.0" departLane="random" />
    <vehicles id="-E37_to_-E34_31" type="standard_car" route="-E37_to_-E34" depart="220.0" departLane="random" />
    <vehicles id="E34_to_E37_32" type="standard_car" route="E34_to_E37" depart="221.0" departLane="random" />
    <vehicles id="E34_to_E37_33" type="standard_car" route="E34_to_E37" depart="228.0" departLane="random" />
    <vehicles id="-E37_to_-E34_34" type="standard_car" route="-E37_to_-E34" depart="230.0" departLane="random" />
    <vehicles id="-E37_to_-E34_35" type="standard_car" route="-E37_to_-E34" depart="238.0" departLane="random" />
    <vehicle id="-E37_to_E35_36" type="standard_car" route="-E37_to_E35" depart="240.0" departLane="random" />
    <vehicles id="-E37_to_-E34_37" type="standard_car" route="-E37_to_-E34" depart="241.0" departLane="random" />
    <vehicle id="E34_to_E35_38" type="standard_car" route="E34_to_E35" depart="242.0" departLane="random" />
    <vehicles id="E34_to_E37_39" type="standard_car" route="E34_to_E37" depart="251.0" departLane="random" />
    <vehicle id="-E37_to_E35_40" type="standard_car" route="-E37_to_E35" depart="256.0" departLane="random" />
    <vehicle id="E34_to_E35_41" type="standard_car" route="E34_to_E35" depart="260.0" departLane="random" />
    <vehicles id="-E37_to_-E34_42" type="standard_car" route="-E37_to_-E34" depart="263.0" departLane="random" />
    <vehicle id="E34_to_E35_43" type="standard_car" route="E34_to_E35" depart="268.0" departLane="random" />
    <vehicles id="E34_to_E37_44" type="standard_car" route="E34_to_E37" depart="270.0" departLane="random" />
    <vehicle id="E34_to_E35_45" type="standard_car" route="E34_to_E35" depart="281.0" departLane="random" />
    <vehicles id="-E37_to_-E34_46" type="standard_car" route="-E37_to_-E34" depart="284.0" departLane="random" />
    <vehicle id="-E37_to_E35_47" type="standard_car" route="-E37_to_E35" depart="286.0" departLane="random" />
    <vehicles id="-E37_to_-E34_48" type="standard_car" route="-E37_to_-E34" depart="290.0" departLane="random" />
    <vehicle id="-E37_to_E35_49" type="standard_car" route="-E37_to_E35" depart="290.0" departLane="random" />
    <vehicles id="-E37_to_-E34_50" type="standard_car" route="-E37_to_-E34" depart="293.0" departLane="random" />
    <vehicle id="-E37_to_E35_51" type="standard_car" route="-E37_to_E35" depart="294.0" departLane="random" />
    <vehicle id="-E37_to_E35_52" type="standard_car" route="-E37_to_E35" depart="295.0" departLane="random" />
    <vehicles id="E34_to_E37_53" type="standard_car" route="E34_to_E37" depart="297.0" departLane="random" />
    <vehicle id="-E37_to_E35_54" type="standard_car" route="-E37_to_E35" depart="298.0" departLane="random" />
    <vehicles id="-E37_to_-E34_55" type="standard_car" route="-E37_to_-E34" depart="299.0" departLane="random" />
    <vehicle id="-E37_to_E35_56" type="standard_car" route="-E37_to_E35" depart="301.0" departLane="random" />
    <vehicle id="-E37_to_E35_57" type="standard_car" route="-E37_to_E35" depart="305.0" departLane="random" />
    <vehicle id="-E37_to_E35_58" type="standard_car" route="-E37_to_E35" depart="305.0" departLane="random" />
    <vehicles id="-E37_to_-E34_59" type="standard_car" route="-E37_to_-E34" depart="307.0" departLane="random" />
    <vehicles id="E34_to_E37_60" type="standard_car" route="E34_to_E37" depart="307.0" departLane="random" />
    <vehicle id="E34_to_E35_61" type="standard_car" route="E34_to_E35" depart="309.0" departLane="random" />
    <vehicle id="-E37_to_E35_62" type="standard_car" route="-E37_to_E35" depart="309.0" departLane="random" />
    <vehicles id="E34_to_E37_63" type="standard_car" route="E34_to_E37" depart="312.0" departLane="random" />
    <vehicles id="E34_to_E37_64" type="standard_car" route="E34_to_E37" depart="313.0" departLane="random" />
    <vehicle id="-E37_to_E35_65" type="standard_car" route="-E37_to_E35" depart="314.0" departLane="random" />
    <vehicles id="E34_to_E37_66" type="standard_car" route="E34_to_E37" depart="317.0" departLane="random" />
    <vehicles id="-E37_to_-E34_67" type="standard_car" route="-E37_to_-E34" depart="319.0" departLane="random" />
    <vehicles id="-E37_to_-E34_68" type="standard_car" route="-E37_to_-E34" depart="321.0" departLane="random" />
    <vehicle id="-E37_to_E35_69" type="standard_car" route="-E37_to_E35" depart="321.0" departLane="random" />
    <vehicle id="-E37_to_E35_70" type="standard_car" route="-E37_to_E35" depart="321.0" departLane="random" />
    <vehicle id="-E37_to_E35_71" type="standard_car" route="-E37_to_E35" depart="323.0" departLane="random" />
    <vehicles id="E34_to_E37_72" type="standard_car" route="E34_to_E37" depart="325.0" departLane="random" />
    <vehicles id="-E37_to_-E34_73" type="standard_car" route="-E37_to_-E34" depart="326.0" departLane="random" />
    <vehicles id="E34_to_E37_74" type="standard_car" route="E34_to_E37" depart="336.0" departLane="random" />
    <vehicles id="-E37_to_-E34_75" type="standard_car" route="-E37_to_-E34" depart="338.0" departLane="random" />
    <vehicles id="E34_to_E37_76" type="standard_car" route="E34_to_E37" depart="340.0" departLane="random" />
    <vehicles id="E34_to_E37_77" type="standard_car" route="E34_to_E37" depart="345.0" departLane="random" />
    <vehicles id="-E37_to_-E34_78" type="standard_car" route="-E37_to_-E34" depart="348.0" departLane="random" />
    <vehicles id="-E37_to_-E34_79" type="standard_car" route="-E37_to_-E34" depart="349.0" departLane="random" />
    <vehicles id="E34_to_E37_80" type="standard_car" route="E34_to_E37" depart="350.0" departLane="random" />
    <vehicle id="E34_to_E35_81" type="standard_car" route="E34_to_E35" depart="354.0" departLane="random" />
    <vehicles id="E34_to_E37_82" type="standard_car" route="E34_to_E37" depart="358.0" departLane="random" />
    <vehicles id="E34_to_E37_83" type="standard_car" route="E34_to_E37" depart="362.0" departLane="random" />
    <vehicle id="-E37_to_E35_84" type="standard_car" route="-E37_to_E35" depart="367.0" departLane="random" />
    <vehicles id="-E37_to_-E34_85" type="standard_car" route="-E37_to_-E34" depart="368.0" departLane="random" />
    <vehicles id="E34_to_E37_86" type="standard_car" route="E34_to_E37" depart="370.0" departLane="random" />
    <vehicle id="-E37_to_E35_87" type="standard_car" route="-E37_to_E35" depart="377.0" departLane="random" />
    <vehicle id="-E37_to_E35_88" type="standard_car" route="-E37_to_E35" depart="381.0" departLane="random" />
    <vehicle id="E34_to_E35_89" type="standard_car" route="E34_to_E35" depart="382.0" departLane="random" />
    <vehicles id="E34_to_E37_90" type="standard_car" route="E34_to_E37" depart="383.0" departLane="random" />
    <vehicles id="-E37_to_-E34_91" type="standard_car" route="-E37_to_-E34" depart="384.0" departLane="random" />
    <vehicles id="-E37_to_-E34_92" type="standard_car" route="-E37_to_-E34" depart="384.0" departLane="random" />
    <vehicles id="-E37_to_-E34_93" type="standard_car" route="-E37_to_-E34" depart="384.0" departLane="random" />
    <vehicles id="E34_to_E37_94" type="standard_car" route="E34_to_E37" depart="385.0" departLane="random" />
    <vehicles id="E34_to_E37_95" type="standard_car" route="E34_to_E37" depart="385.0" departLane="random" />
    <vehicles id="-E37_to_-E34_96" type="standard_car" route="-E37_to_-E34" depart="389.0" departLane="random" />
    <vehicles id="-E37_to_-E34_97" type="standard_car" route="-E37_to_-E34" depart="389.0" departLane="random" />
    <vehicles id="E34_to_E37_98" type="standard_car" route="E34_to_E37" depart="390.0" departLane="random" />
    <vehicle id="E34_to_E35_99" type="standard_car" route="E34_to_E35" depart="390.0" departLane="random" />
    <vehicles id="-E37_to_-E34_100" type="standard_car" route="-E37_to_-E34" depart="390.0" departLane="random" />
    <vehicles id="E34_to_E37_101" type="standard_car" route="E34_to_E37" depart="394.0" departLane="random" />
    <vehicles id="E34_to_E37_102" type="standard_car" route="E34_to_E37" depart="394.0" departLane="random" />
    <vehicle id="E34_to_E35_103" type="standard_car" route="E34_to_E35" depart="396.0" departLane="random" />
    <vehicles id="-E37_to_-E34_104" type="standard_car" route="-E37_to_-E34" depart="399.0" departLane="random" />
    <vehicle id="E34_to_E35_105" type="standard_car" route="E34_to_E35" depart="401.0" departLane="random" />
    <vehicle id="E34_to_E35_106" type="standard_car" route="E34_to_E35" depart="404.0" departLane="random" />
    <vehicle id="E34_to_E35_107" type="standard_car" route="E34_to_E35" depart="404.0" departLane="random" />
    <vehicles id="E34_to_E37_108" type="standard_car" route="E34_to_E37" depart="405.0" departLane="random" />
    <vehicles id="E34_to_E37_109" type="standard_car" route="E34_to_E37" depart="409.0" departLane="random" />
    <vehicles id="-E37_to_-E34_110" type="standard_car" route="-E37_to_-E34" depart="410.0" departLane="random" />
    <vehicle id="E34_to_E35_111" type="standard_car" route="E34_to_E35" depart="411.0" departLane="random" />
    <vehicle id="-E37_to_E35_112" type="standard_car" route="-E37_to_E35" depart="413.0" departLane="random" />
    <vehicles id="E34_to_E37_113" type="standard_car" route="E34_to_E37" depart="414.0" departLane="random" />
    <vehicles id="-E37_to_-E34_114" type="standard_car" route="-E37_to_-E34" depart="420.0" departLane="random" />
    <vehicle id="E34_to_E35_115" type="standard_car" route="E34_to_E35" depart="421.0" departLane="random" />
    <vehicle id="E34_to_E35_116" type="standard_car" route="E34_to_E35" depart="421.0" departLane="random" />
    <vehicle id="E34_to_E35_117" type="standard_car" route="E34_to_E35" depart="421.0" departLane="random" />
    <vehicles id="E34_to_E37_118" type="standard_car" route="E34_to_E37" depart="421.0" departLane="random" />
    <vehicle id="E34_to_E35_119" type="standard_car" route="E34_to_E35" depart="424.0" departLane="random" />
    <vehicle id="E34_to_E35_120" type="standard_car" route="E34_to_E35" depart="424.0" departLane="random" />
    <vehicle id="E34_to_E35_121" type="standard_car" route="E34_to_E35" depart="424.0" departLane="random" />
    <vehicles id="E34_to_E37_122" type="standard_car" route="E34_to_E37" depart="424.0" departLane="random" />
    <vehicle id="E34_to_E35_123" type="standard_car" route="E34_to_E35" depart="424.0" departLane="random" />
    <vehicle id="E34_to_E35_124" type="standard_car" route="E34_to_E35" depart="426.0" departLane="random" />
    <vehicle id="-E37_to_E35_125" type="standard_car" route="-E37_to_E35" depart="427.0" departLane="random" />
    <vehicle id="E34_to_E35_126" type="standard_car" route="E34_to_E35" depart="429.0" departLane="random" />
    <vehicle id="-E37_to_E35_127" type="standard_car" route="-E37_to_E35" depart="429.0" departLane="random" />
    <vehicles id="-E37_to_-E34_128" type="standard_car" route="-E37_to_-E34" depart="436.0" departLane="random" />
    <vehicles id="-E37_to_-E34_129" type="standard_car" route="-E37_to_-E34" depart="446.0" departLane="random" />
    <vehicles id="-E37_to_-E34_130" type="standard_car" route="-E37_to_-E34" depart="446.0" departLane="random" />
    <vehicles id="-E37_to_-E34_131" type="standard_car" route="-E37_to_-E34" depart="450.0" departLane="random" />
    <vehicles id="-E37_to_-E34_132" type="standard_car" route="-E37_to_-E34" depart="450.0" departLane="random" />
    <vehicles id="E34_to_E37_133" type="standard_car" route="E34_to_E37" depart="451.0" departLane="random" />
    <vehicle id="E34_to_E35_134" type="standard_car" route="E34_to_E35" depart="451.0" departLane="random" />
    <vehicle id="E34_to_E35_135" type="standard_car" route="E34_to_E35" depart="452.0" departLane="random" />
    <vehicle id="E34_to_E35_136" type="standard_car" route="E34_to_E35" depart="452.0" departLane="random" />
    <vehicles id="-E37_to_-E34_137" type="standard_car" route="-E37_to_-E34" depart="454.0" departLane="random" />
    <vehicle id="E34_to_E35_138" type="standard_car" route="E34_to_E35" depart="454.0" departLane="random" />
    <vehicle id="E34_to_E35_139" type="standard_car" route="E34_to_E35" depart="458.0" departLane="random" />
    <vehicles id="E34_to_E37_140" type="standard_car" route="E34_to_E37" depart="460.0" departLane="random" />
    <vehicle id="-E37_to_E35_141" type="standard_car" route="-E37_to_E35" depart="463.0" departLane="random" />
    <vehicles id="-E37_to_-E34_142" type="standard_car" route="-E37_to_-E34" depart="464.0" departLane="random" />
    <vehicle id="E34_to_E35_143" type="standard_car" route="E34_to_E35" depart="467.0" departLane="random" />
    <vehicles id="-E37_to_-E34_144" type="standard_car" route="-E37_to_-E34" depart="467.0" departLane="random" />
    <vehicle id="E34_to_E35_145" type="standard_car" route="E34_to_E35" depart="469.0" departLane="random" />
    <vehicles id="E34_to_E37_146" type="standard_car" route="E34_to_E37" depart="472.0" departLane="random" />
    <vehicles id="-E37_to_-E34_147" type="standard_car" route="-E37_to_-E34" depart="475.0" departLane="random" />
    <vehicle id="-E37_to_E35_148" type="standard_car" route="-E37_to_E35" depart="478.0" departLane="random" />
    <vehicles id="E34_to_E37_149" type="standard_car" route="E34_to_E37" depart="480.0" departLane="random" />
    <vehicles id="-E37_to_-E34_150" type="standard_car" route="-E37_to_-E34" depart="480.0" departLane="random" />
    <vehicles id="E34_to_E37_151" type="standard_car" route="E34_to_E37" depart="480.0" departLane="random" />
    <vehicles id="E34_to_E37_152" type="standard_car" route="E34_to_E37" depart="481.0" departLane="random" />
    <vehicles id="-E37_to_-E34_153" type="standard_car" route="-E37_to_-E34" depart="483.0" departLane="random" />
    <vehicles id="-E37_to_-E34_154" type="standard_car" route="-E37_to_-E34" depart="485.0" departLane="random" />
    <vehicles id="E34_to_E37_155" type="standard_car" route="E34_to_E37" depart="488.0" departLane="random" />
    <vehicles id="E34_to_E37_156" type="standard_car" route="E34_to_E37" depart="490.0" departLane="random" />
    <vehicles id="-E37_to_-E34_157" type="standard_car" route="-E37_to_-E34" depart="495.0" departLane="random" />
    <vehicles id="-E37_to_-E34_158" type="standard_car" route="-E37_to_-E34" depart="499.0" departLane="random" />
    <vehicles id="-E37_to_-E34_159" type="standard_car" route="-E37_to_-E34" depart="500.0" departLane="random" />
    <vehicles id="-E37_to_-E34_160" type="standard_car" route="-E37_to_-E34" depart="500.0" departLane="random" />
    <vehicle id="-E37_to_E35_161" type="standard_car" route="-E37_to_E35" depart="501.0" departLane="random" />
    <vehicles id="-E37_to_-E34_162" type="standard_car" route="-E37_to_-E34" depart="501.0" departLane="random" />
    <vehicles id="-E37_to_-E34_163" type="standard_car" route="-E37_to_-E34" depart="502.0" departLane="random" />
    <vehicles id="E34_to_E37_164" type="standard_car" route="E34_to_E37" depart="502.0" departLane="random" />
    <vehicles id="-E37_to_-E34_165" type="standard_car" route="-E37_to_-E34" depart="503.0" departLane="random" />
    <vehicles id="E34_to_E37_166" type="standard_car" route="E34_to_E37" depart="505.0" departLane="random" />
    <vehicle id="E34_to_E35_167" type="standard_car" route="E34_to_E35" depart="505.0" departLane="random" />
    <vehicles id="-E37_to_-E34_168" type="standard_car" route="-E37_to_-E34" depart="505.0" departLane="random" />
    <vehicle id="E34_to_E35_169" type="standard_car" route="E34_to_E35" depart="506.0" departLane="random" />
    <vehicles id="E34_to_E37_170" type="standard_car" route="E34_to_E37" depart="509.0" departLane="random" />
    <vehicle id="-E37_to_E35_171" type="standard_car" route="-E37_to_E35" depart="511.0" departLane="random" />
    <vehicle id="-E37_to_E35_172" type="standard_car" route="-E37_to_E35" depart="516.0" departLane="random" />
    <vehicles id="E34_to_E37_173" type="standard_car" route="E34_to_E37" depart="521.0" departLane="random" />
    <vehicle id="-E37_to_E35_174" type="standard_car" route="-E37_to_E35" depart="521.0" departLane="random" />
    <vehicles id="E34_to_E37_175" type="standard_car" route="E34_to_E37" depart="523.0" departLane="random" />
    <vehicle id="E34_to_E35_176" type="standard_car" route="E34_to_E35" depart="526.0" departLane="random" />
    <vehicle id="-E37_to_E35_177" type="standard_car" route="-E37_to_E35" depart="526.0" departLane="random" />
    <vehicles id="E34_to_E37_178" type="standard_car" route="E34_to_E37" depart="527.0" departLane="random" />
    <vehicles id="-E37_to_-E34_179" type="standard_car" route="-E37_to_-E34" depart="529.0" departLane="random" />
    <vehicles id="E34_to_E37_180" type="standard_car" route="E34_to_E37" depart="530.0" departLane="random" />
    <vehicle id="-E37_to_E35_181" type="standard_car" route="-E37_to_E35" depart="532.0" departLane="random" />
    <vehicles id="E34_to_E37_182" type="standard_car" route="E34_to_E37" depart="534.0" departLane="random" />
    <vehicles id="E34_to_E37_183" type="standard_car" route="E34_to_E37" depart="534.0" departLane="random" />
    <vehicle id="E34_to_E35_184" type="standard_car" route="E34_to_E35" depart="536.0" departLane="random" />
    <vehicles id="E34_to_E37_185" type="standard_car" route="E34_to_E37" depart="540.0" departLane="random" />
    <vehicles id="-E37_to_-E34_186" type="standard_car" route="-E37_to_-E34" depart="540.0" departLane="random" />
    <vehicles id="-E37_to_-E34_187" type="standard_car" route="-E37_to_-E34" depart="540.0" departLane="random" />
    <vehicles id="E34_to_E37_188" type="standard_car" route="E34_to_E37" depart="543.0" departLane="random" />
    <vehicles id="-E37_to_-E34_189" type="standard_car" route="-E37_to_-E34" depart="544.0" departLane="random" />
    <vehicle id="-E37_to_E35_190" type="standard_car" route="-E37_to_E35" depart="544.0" departLane="random" />
    <vehicle id="-E37_to_E35_191" type="standard_car" route="-E37_to_E35" depart="545.0" departLane="random" />
    <vehicles id="E34_to_E37_192" type="standard_car" route="E34_to_E37" depart="546.0" departLane="random" />
    <vehicles id="E34_to_E37_193" type="standard_car" route="E34_to_E37" depart="551.0" departLane="random" />
    <vehicle id="-E37_to_E35_194" type="standard_car" route="-E37_to_E35" depart="552.0" departLane="random" />
    <vehicles id="-E37_to_-E34_195" type="standard_car" route="-E37_to_-E34" depart="561.0" departLane="random" />
    <vehicles id="E34_to_E37_196" type="standard_car" route="E34_to_E37" depart="562.0" departLane="random" />
    <vehicles id="E34_to_E37_197" type="standard_car" route="E34_to_E37" depart="562.0" departLane="random" />
    <vehicles id="-E37_to_-E34_198" type="standard_car" route="-E37_to_-E34" depart="566.0" departLane="random" />
    <vehicle id="E34_to_E35_199" type="standard_car" route="E34_to_E35" depart="567.0" departLane="random" />
    <vehicle id="E34_to_E35_200" type="standard_car" route="E34_to_E35" depart="575.0" departLane="random" />
    <vehicle id="E34_to_E35_201" type="standard_car" route="E34_to_E35" depart="579.0" departLane="random" />
    <vehicle id="-E37_to_E35_202" type="standard_car" route="-E37_to_E35" depart="580.0" departLane="random" />
    <vehicles id="-E37_to_-E34_203" type="standard_car" route="-E37_to_-E34" depart="581.0" departLane="random" />
    <vehicle id="-E37_to_E35_204" type="standard_car" route="-E37_to_E35" depart="582.0" departLane="random" />
    <vehicle id="-E37_to_E35_205" type="standard_car" route="-E37_to_E35" depart="582.0" departLane="random" />
    <vehicle id="E34_to_E35_206" type="standard_car" route="E34_to_E35" depart="583.0" departLane="random" />
    <vehicles id="-E37_to_-E34_207" type="standard_car" route="-E37_to_-E34" depart="585.0" departLane="random" />
    <vehicles id="E34_to_E37_208" type="standard_car" route="E34_to_E37" depart="586.0" departLane="random" />
    <vehicles id="-E37_to_-E34_209" type="standard_car" route="-E37_to_-E34" depart="588.0" departLane="random" />
    <vehicle id="-E37_to_E35_210" type="standard_car" route="-E37_to_E35" depart="589.0" departLane="random" />
    <vehicle id="E34_to_E35_211" type="standard_car" route="E34_to_E35" depart="591.0" departLane="random" />
    <vehicle id="E34_to_E35_212" type="standard_car" route="E34_to_E35" depart="591.0" departLane="random" />
    <vehicles id="E34_to_E37_213" type="standard_car" route="E34_to_E37" depart="593.0" departLane="random" />
    <vehicles id="E34_to_E37_214" type="standard_car" route="E34_to_E37" depart="593.0" departLane="random" />
    <vehicle id="E34_to_E35_215" type="standard_car" route="E34_to_E35" depart="593.0" departLane="random" />
    <vehicle id="E34_to_E35_216" type="standard_car" route="E34_to_E35" depart="595.0" departLane="random" />
    <vehicles id="E34_to_E37_217" type="standard_car" route="E34_to_E37" depart="598.0" departLane="random" />
    <vehicles id="E34_to_E37_218" type="standard_car" route="E34_to_E37" depart="600.0" departLane="random" />
    <vehicles id="E34_to_E37_219" type="standard_car" route="E34_to_E37" depart="600.0" departLane="random" />
    <vehicles id="-E37_to_-E34_220" type="standard_car" route="-E37_to_-E34" depart="603.0" departLane="random" />
    <vehicles id="E34_to_E37_221" type="standard_car" route="E34_to_E37" depart="603.0" departLane="random" />
    <vehicles id="E34_to_E37_222" type="standard_car" route="E34_to_E37" depart="604.0" departLane="random" />
    <vehicles id="-E37_to_-E34_223" type="standard_car" route="-E37_to_-E34" depart="605.0" departLane="random" />
    <vehicle id="E34_to_E35_224" type="standard_car" route="E34_to_E35" depart="609.0" departLane="random" />
    <vehicles id="E34_to_E37_225" type="standard_car" route="E34_to_E37" depart="610.0" departLane="random" />
    <vehicles id="E34_to_E37_226" type="standard_car" route="E34_to_E37" depart="610.0" departLane="random" />
    <vehicles id="E34_to_E37_227" type="standard_car" route="E34_to_E37" depart="611.0" departLane="random" />
    <vehicle id="E34_to_E35_228" type="standard_car" route="E34_to_E35" depart="613.0" departLane="random" />
    <vehicles id="-E37_to_-E34_229" type="standard_car" route="-E37_to_-E34" depart="616.0" departLane="random" />
    <vehicle id="E34_to_E35_230" type="standard_car" route="E34_to_E35" depart="617.0" departLane="random" />
    <vehicles id="-E37_to_-E34_231" type="standard_car" route="-E37_to_-E34" depart="617.0" departLane="random" />
    <vehicles id="-E37_to_-E34_232" type="standard_car" route="-E37_to_-E34" depart="618.0" departLane="random" />
    <vehicles id="E34_to_E37_233" type="standard_car" route="E34_to_E37" depart="619.0" departLane="random" />
    <vehicles id="-E37_to_-E34_234" type="standard_car" route="-E37_to_-E34" depart="625.0" departLane="random" />
    <vehicle id="E34_to_E35_235" type="standard_car" route="E34_to_E35" depart="625.0" departLane="random" />
    <vehicles id="E34_to_E37_236" type="standard_car" route="E34_to_E37" depart="625.0" departLane="random" />
    <vehicles id="-E37_to_-E34_237" type="standard_car" route="-E37_to_-E34" depart="626.0" departLane="random" />
    <vehicles id="-E37_to_-E34_238" type="standard_car" route="-E37_to_-E34" depart="629.0" departLane="random" />
    <vehicles id="E34_to_E37_239" type="standard_car" route="E34_to_E37" depart="630.0" departLane="random" />
    <vehicle id="-E37_to_E35_240" type="standard_car" route="-E37_to_E35" depart="631.0" departLane="random" />
    <vehicle id="-E37_to_E35_241" type="standard_car" route="-E37_to_E35" depart="631.0" departLane="random" />
    <vehicles id="-E37_to_-E34_242" type="standard_car" route="-E37_to_-E34" depart="632.0" departLane="random" />
    <vehicle id="-E37_to_E35_243" type="standard_car" route="-E37_to_E35" depart="632.0" departLane="random" />
    <vehicle id="E34_to_E35_244" type="standard_car" route="E34_to_E35" depart="635.0" departLane="random" />
    <vehicle id="-E37_to_E35_245" type="standard_car" route="-E37_to_E35" depart="636.0" departLane="random" />
    <vehicle id="E34_to_E35_246" type="standard_car" route="E34_to_E35" depart="637.0" departLane="random" />
    <vehicle id="-E37_to_E35_247" type="standard_car" route="-E37_to_E35" depart="638.0" departLane="random" />
    <vehicle id="-E37_to_E35_248" type="standard_car" route="-E37_to_E35" depart="638.0" departLane="random" />
    <vehicle id="E34_to_E35_249" type="standard_car" route="E34_to_E35" depart="640.0" departLane="random" />
    <vehicle id="-E37_to_E35_250" type="standard_car" route="-E37_to_E35" depart="640.0" departLane="random" />
    <vehicles id="E34_to_E37_251" type="standard_car" route="E34_to_E37" depart="641.0" departLane="random" />
    <vehicles id="-E37_to_-E34_252" type="standard_car" route="-E37_to_-E34" depart="642.0" departLane="random" />
    <vehicles id="-E37_to_-E34_253" type="standard_car" route="-E37_to_-E34" depart="643.0" departLane="random" />
    <vehicles id="E34_to_E37_254" type="standard_car" route="E34_to_E37" depart="644.0" departLane="random" />
    <vehicles id="E34_to_E37_255" type="standard_car" route="E34_to_E37" depart="647.0" departLane="random" />
    <vehicles id="-E37_to_-E34_256" type="standard_car" route="-E37_to_-E34" depart="648.0" departLane="random" />
    <vehicle id="E34_to_E35_257" type="standard_car" route="E34_to_E35" depart="649.0" departLane="random" />
    <vehicles id="-E37_to_-E34_258" type="standard_car" route="-E37_to_-E34" depart="649.0" departLane="random" />
    <vehicle id="-E37_to_E35_259" type="standard_car" route="-E37_to_E35" depart="649.0" departLane="random" />
    <vehicles id="E34_to_E37_260" type="standard_car" route="E34_to_E37" depart="650.0" departLane="random" />
    <vehicle id="E34_to_E35_261" type="standard_car" route="E34_to_E35" depart="654.0" departLane="random" />
    <vehicle id="-E37_to_E35_262" type="standard_car" route="-E37_to_E35" depart="657.0" departLane="random" />
    <vehicle id="E34_to_E35_263" type="standard_car" route="E34_to_E35" depart="658.0" departLane="random" />
    <vehicle id="E34_to_E35_264" type="standard_car" route="E34_to_E35" depart="660.0" departLane="random" />