<?xml version="1.0" encoding="UTF-8"?>

<!-- generated on 2022-05-24 16:32:39 by Eclipse SUMO duarouter Version 1.10.0
<configuration xmlns:xsi="http://www.w3.org/2001/XMLSchema-instance" xsi:noNamespaceSchemaLocation="http://sumo.dlr.de/xsd/duarouterConfiguration.xsd">

    <input>
        <net-file value="2TL.net.xml"/>
        <route-files value="trips.xml"/>
    </input>

    <output>
        <output-file value="2TL.rou.xml"/>
        <alternatives-output value="2TL.rou.alt.xml"/>
    </output>

    <time>
        <begin value="0"/>
        <end value="5400"/>
    </time>

    <report>
        <no-warnings value="true"/>
        <ignore-errors value="true"/>
        <no-step-log value="true"/>
    </report>

</configuration>
-->

<routes xmlns:xsi="http://www.w3.org/2001/XMLSchema-instance" xsi:noNamespaceSchemaLocation="http://sumo.dlr.de/xsd/routes_file.xsd">
<vType accel="0.8" id="standard_car" decel="4.5" length="5.0" minGap="2.5" maxSpeed="60" sigma="0.5" />
    <vehicle id="1" depart="5.40">
        <route edges="E6 E2"/>
    </vehicle>
    <vehicle id="2" depart="10.80">
        <route edges="right_in"/>
    </vehicle>
    <vehicle id="3" depart="16.20">
        <route edges="top_in right_out -E6"/>
    </vehicle>
    <vehicle id="4" depart="21.60">
        <route edges="bottom_in right_out -E6"/>
    </vehicle>
    <vehicle id="5" depart="27.00">
        <route edges="-E7 right_in left_out"/>
    </vehicle>
    <vehicle id="7" depart="37.80">
        <route edges="right_in left_out"/>
    </vehicle>
    <vehicle id="8" depart="43.20">
        <route edges="-E7 right_in left_out"/>
    </vehicle>
    <vehicle id="9" depart="48.60">
        <route edges="right_out -E6"/>
    </vehicle>
    <vehicle id="11" depart="59.40">
        <route edges="E6 E2"/>
    </vehicle>
    <vehicle id="12" depart="64.80">
        <route edges="top_in right_out E7"/>
    </vehicle>
    <vehicle id="13" depart="70.20">
        <route edges="-E2 -E6"/>
    </vehicle>
    <vehicle id="16" depart="86.40">
        <route edges="left_in top_out"/>
    </vehicle>
    <vehicle id="17" depart="91.80">
        <route edges="bottom_in left_out"/>
    </vehicle>
    <vehicle id="23" depart="124.20">
        <route edges="-E2 E7"/>
    </vehicle>
    <vehicle id="25" depart="135.00">
        <route edges="E6 E2"/>
    </vehicle>
    <vehicle id="26" depart="140.40">
        <route edges="E6 right_in top_out"/>
    </vehicle>
    <vehicle id="27" depart="145.80">
        <route edges="right_in left_out"/>
    </vehicle>
    <vehicle id="28" depart="151.20">
        <route edges="-E7 right_in"/>
    </vehicle>
    <vehicle id="29" depart="156.60">
        <route edges="-E7 right_in bottom_out"/>
    </vehicle>
    <vehicle id="32" depart="172.80">
        <route edges="right_out"/>
    </vehicle>
    <vehicle id="33" depart="178.20">
        <route edges="-E7 -E6"/>
    </vehicle>
    <vehicle id="34" depart="183.60">
        <route edges="E6 E7"/>
    </vehicle>
    <vehicle id="35" depart="189.00">
        <route edges="-E7 right_in top_out"/>
    </vehicle>
    <vehicle id="36" depart="194.40">
        <route edges="top_in right_out E7"/>
    </vehicle>
    <vehicle id="37" depart="199.80">
        <route edges="right_in bottom_out"/>
    </vehicle>
    <vehicle id="38" depart="205.20">
        <route edges="top_in bottom_out"/>
    </vehicle>
    <vehicle id="39" depart="210.60">
        <route edges="E6 E2"/>
    </vehicle>
    <vehicle id="40" depart="216.00">
        <route edges="left_in right_out E7"/>
    </vehicle>
    <vehicle id="41" depart="221.40">
        <route edges="left_in top_out"/>
    </vehicle>
    <vehicle id="42" depart="226.80">
        <route edges="bottom_in right_out E2"/>
    </vehicle>
    <vehicle id="43" depart="232.20">
        <route edges="top_in left_out"/>
    </vehicle>
    <vehicle id="44" depart="237.60">
        <route edges="-E2 -E6"/>
    </vehicle>
    <vehicle id="45" depart="243.00">
        <route edges="-E2 right_in"/>
    </vehicle>
    <vehicle id="47" depart="253.80">
        <route edges="-E2 right_in bottom_out"/>
    </vehicle>
    <vehicle id="48" depart="259.20">
        <route edges="top_in left_out"/>
    </vehicle>
    <vehicle id="49" depart="264.60">
        <route edges="top_in right_out"/>
    </vehicle>
    <vehicle id="50" depart="270.00">
        <route edges="-E2 right_in"/>
    </vehicle>
    <vehicle id="51" depart="275.40">
        <route edges="right_in left_out"/>
    </vehicle>
    <vehicle id="52" depart="280.80">
        <route edges="E6 right_in"/>
    </vehicle>
    <vehicle id="53" depart="286.20">
        <route edges="-E2 right_in bottom_out"/>
    </vehicle>
    <vehicle id="54" depart="291.60">
        <route edges="bottom_in top_out"/>
    </vehicle>
    <vehicle id="55" depart="297.00">
        <route edges="top_in right_out E7"/>
    </vehicle>
    <vehicle id="56" depart="302.40">
        <route edges="left_in right_out E2"/>
    </vehicle>
    <vehicle id="57" depart="307.80">
        <route edges="top_in right_out"/>
    </vehicle>
    <vehicle id="58" depart="313.20">
        <route edges="E6 right_in"/>
    </vehicle>
    <vehicle id="59" depart="318.60">
        <route edges="left_in right_out E2"/>
    </vehicle>
    <vehicle id="62" depart="334.80">
        <route edges="-E2 E7"/>
    </vehicle>
    <vehicle id="63" depart="340.20">
        <route edges="-E2 right_in top_out"/>
    </vehicle>
    <vehicle id="64" depart="345.60">
        <route edges="top_in right_out"/>
    </vehicle>
    <vehicle id="67" depart="361.80">
        <route edges="-E2 right_in bottom_out"/>
    </vehicle>
    <vehicle id="69" depart="372.60">
        <route edges="right_out E2"/>
    </vehicle>
    <vehicle id="70" depart="378.00">
        <route edges="bottom_in left_out"/>
    </vehicle>
    <vehicle id="72" depart="388.80">
        <route edges="bottom_in right_out E2"/>
    </vehicle>
    <vehicle id="76" depart="410.40">
        <route edges="bottom_in left_out"/>
    </vehicle>
    <vehicle id="78" depart="421.20">
        <route edges="E6 right_in left_out"/>
    </vehicle>
    <vehicle id="79" depart="426.60">
        <route edges="-E7 E2"/>
    </vehicle>
    <vehicle id="80" depart="432.00">
        <route edges="-E2 right_in"/>
    </vehicle>
    <vehicle id="81" depart="437.40">
        <route edges="-E7 right_in top_out"/>
    </vehicle>
    <vehicle id="82" depart="442.80">
        <route edges="right_out -E6"/>
    </vehicle>
    <vehicle id="83" depart="448.20">
        <route edges="-E7 right_in"/>
    </vehicle>
    <vehicle id="84" depart="453.60">
        <route edges="-E7 E2"/>
    </vehicle>
    <vehicle id="85" depart="459.00">
        <route edges="top_in left_out"/>
    </vehicle>
    <vehicle id="86" depart="464.40">
        <route edges="bottom_in right_out"/>
    </vehicle>
    <vehicle id="87" depart="469.80">
        <route edges="right_out E2"/>
    </vehicle>
    <vehicle id="88" depart="475.20">
        <route edges="-E2 right_in bottom_out"/>
    </vehicle>
    <vehicle id="90" depart="486.00">
        <route edges="right_in"/>
    </vehicle>
    <vehicle id="91" depart="491.40">
        <route edges="top_in right_out -E6"/>
    </vehicle>
    <vehicle id="92" depart="496.80">
        <route edges="bottom_in right_out E7"/>
    </vehicle>
    <vehicle id="93" depart="502.20">
        <route edges="right_out E2"/>
    </vehicle>
    <vehicle id="94" depart="507.60">
        <route edges="-E7 right_in bottom_out"/>
    </vehicle>
    <vehicle id="95" depart="513.00">
        <route edges="bottom_in right_out E7"/>
    </vehicle>
    <vehicle id="96" depart="518.40">
        <route edges="-E7 right_in top_out"/>
    </vehicle>
    <vehicle id="97" depart="523.80">
        <route edges="bottom_in right_out"/>
    </vehicle>
    <vehicle id="98" depart="529.20">
        <route edges="left_in right_out -E6"/>
    </vehicle>
    <vehicle id="99" depart="534.60">
        <route edges="top_in right_out"/>
    </vehicle>
    <vehicle id="101" depart="545.40">
        <route edges="right_out E2"/>
    </vehicle>
    <vehicle id="102" depart="550.80">
        <route edges="bottom_in right_out E2"/>
    </vehicle>
    <vehicle id="103" depart="556.20">
        <route edges="bottom_in right_out -E6"/>
    </vehicle>
    <vehicle id="104" depart="561.60">
        <route edges="bottom_in top_out"/>
    </vehicle>
    <vehicle id="110" depart="594.00">
        <route edges="top_in left_out"/>
    </vehicle>
    <vehicle id="112" depart="604.80">
        <route edges="-E2 right_in left_out"/>
    </vehicle>
    <vehicle id="113" depart="610.20">
        <route edges="left_in right_out"/>
    </vehicle>
    <vehicle id="114" depart="615.60">
        <route edges="-E7 right_in top_out"/>
    </vehicle>
    <vehicle id="117" depart="631.80">
        <route edges="-E7 -E6"/>
    </vehicle>
    <vehicle id="118" depart="637.20">
        <route edges="top_in right_out E2"/>
    </vehicle>
    <vehicle id="120" depart="648.00">
        <route edges="bottom_in left_out"/>
    </vehicle>
    <vehicle id="121" depart="653.40">
        <route edges="left_in top_out"/>
    </vehicle>
    <vehicle id="122" depart="658.80">
        <route edges="-E7 right_in"/>
    </vehicle>
    <vehicle id="123" depart="664.20">
        <route edges="-E7 right_in bottom_out"/>
    </vehicle>
    <vehicle id="126" depart="680.40">
        <route edges="-E2 right_in bottom_out"/>
    </vehicle>
    <vehicle id="129" depart="696.60">
        <route edges="E6 right_in top_out"/>
    </vehicle>
    <vehicle id="131" depart="707.40">
        <route edges="E6 E2"/>
    </vehicle>
    <vehicle id="133" depart="718.20">
        <route edges="left_in top_out"/>
    </vehicle>
    <vehicle id="135" depart="729.00">
        <route edges="right_out E7"/>
    </vehicle>
    <vehicle id="136" depart="734.40">
        <route edges="right_in top_out"/>
    </vehicle>
    <vehicle id="137" depart="739.80">
        <route edges="-E7 -E6"/>
    </vehicle>
    <vehicle id="138" depart="745.20">
        <route edges="-E2 right_in left_out"/>
    </vehicle>
    <vehicle id="139" depart="750.60">
        <route edges="E6 right_in left_out"/>
    </vehicle>
    <vehicle id="142" depart="766.80">
        <route edges="bottom_in top_out"/>
    </vehicle>
    <vehicle id="143" depart="772.20">
        <route edges="right_out -E6"/>
    </vehicle>
    <vehicle id="144" depart="777.60">
        <route edges="bottom_in right_out E7"/>
    </vehicle>
    <vehicle id="147" depart="793.80">
        <route edges="right_in left_out"/>
    </vehicle>
    <vehicle id="148" depart="799.20">
        <route edges="bottom_in right_out -E6"/>
    </vehicle>
    <vehicle id="149" depart="804.60">
        <route edges="-E2 right_in top_out"/>
    </vehicle>
    <vehicle id="150" depart="810.00">
        <route edges="top_in left_out"/>
    </vehicle>
    <vehicle id="152" depart="820.80">
        <route edges="-E7 E2"/>
    </vehicle>
    <vehicle id="153" depart="826.20">
        <route edges="E6 right_in top_out"/>
    </vehicle>
    <vehicle id="154" depart="831.60">
        <route edges="right_out"/>
    </vehicle>
    <vehicle id="155" depart="837.00">
        <route edges="top_in right_out E2"/>
    </vehicle>
    <vehicle id="156" depart="842.40">
        <route edges="-E7 -E6"/>
    </vehicle>
    <vehicle id="158" depart="853.20">
        <route edges="bottom_in left_out"/>
    </vehicle>
    <vehicle id="159" depart="858.60">
        <route edges="-E7 right_in top_out"/>
    </vehicle>
    <vehicle id="162" depart="874.80">
        <route edges="-E2 right_in"/>
    </vehicle>
    <vehicle id="163" depart="880.20">
        <route edges="E6 right_in top_out"/>
    </vehicle>
    <vehicle id="164" depart="885.60">
        <route edges="right_out"/>
    </vehicle>
    <vehicle id="165" depart="891.00">
        <route edges="right_out E7"/>
    </vehicle>
    <vehicle id="166" depart="896.40">
        <route edges="right_out -E6"/>
    </vehicle>
    <vehicle id="167" depart="901.80">
        <route edges="right_out"/>
    </vehicle>
    <vehicle id="169" depart="912.60">
        <route edges="bottom_in right_out E7"/>
    </vehicle>
    <vehicle id="170" depart="918.00">
        <route edges="right_out E2"/>
    </vehicle>
    <vehicle id="173" depart="934.20">
        <route edges="top_in right_out E7"/>
    </vehicle>
    <vehicle id="174" depart="939.60">
        <route edges="right_in bottom_out"/>
    </vehicle>
    <vehicle id="175" depart="945.00">
        <route edges="top_in left_out"/>
    </vehicle>
    <vehicle id="176" depart="950.40">
        <route edges="top_in right_out -E6"/>
    </vehicle>
    <vehicle id="177" depart="955.80">
        <route edges="top_in right_out E2"/>
    </vehicle>
    <vehicle id="178" depart="961.20">
        <route edges="top_in right_out E7"/>
    </vehicle>
    <vehicle id="179" depart="966.60">
        <route edges="-E2 right_in bottom_out"/>
    </vehicle>
    <vehicle id="182" depart="982.80">
        <route edges="bottom_in left_out"/>
    </vehicle>
    <vehicle id="183" depart="988.20">
        <route edges="E6 right_in"/>
    </vehicle>
    <vehicle id="184" depart="993.60">
        <route edges="-E2 right_in top_out"/>
    </vehicle>
    <vehicle id="186" depart="1004.40">
        <route edges="right_in"/>
    </vehicle>
    <vehicle id="191" depart="1031.40">
        <route edges="E6 right_in bottom_out"/>
    </vehicle>
    <vehicle id="192" depart="1036.80">
        <route edges="bottom_in right_out E7"/>
    </vehicle>
    <vehicle id="193" depart="1042.20">
        <route edges="-E7 right_in bottom_out"/>
    </vehicle>
    <vehicle id="195" depart="1053.00">
        <route edges="top_in left_out"/>
    </vehicle>
    <vehicle id="196" depart="1058.40">
        <route edges="E6 right_in left_out"/>
    </vehicle>
    <vehicle id="197" depart="1063.80">
        <route edges="-E2 E7"/>
    </vehicle>
    <vehicle id="198" depart="1069.20">
        <route edges="bottom_in left_out"/>
    </vehicle>
    <vehicle id="199" depart="1074.60">
        <route edges="right_in bottom_out"/>
    </vehicle>
    <vehicle id="200" depart="1080.00">
        <route edges="bottom_in right_out E2"/>
    </vehicle>
    <vehicle id="201" depart="1085.40">
        <route edges="bottom_in top_out"/>
    </vehicle>
    <vehicle id="202" depart="1090.80">
        <route edges="right_out E2"/>
    </vehicle>
    <vehicle id="203" depart="1096.20">
        <route edges="-E2 right_in left_out"/>
    </vehicle>
    <vehicle id="205" depart="1107.00">
        <route edges="right_out"/>
    </vehicle>
    <vehicle id="207" depart="1117.80">
        <route edges="-E7 -E6"/>
    </vehicle>
    <vehicle id="208" depart="1123.20">
        <route edges="-E7 right_in bottom_out"/>
    </vehicle>
    <vehicle id="209" depart="1128.60">
        <route edges="right_out -E6"/>
    </vehicle>
    <vehicle id="211" depart="1139.40">
        <route edges="-E7 right_in"/>
    </vehicle>
    <vehicle id="212" depart="1144.80">
        <route edges="bottom_in right_out E2"/>
    </vehicle>
    <vehicle id="214" depart="1155.60">
        <route edges="right_out"/>
    </vehicle>
    <vehicle id="215" depart="1161.00">
        <route edges="-E2 right_in bottom_out"/>
    </vehicle>
    <vehicle id="216" depart="1166.40">
        <route edges="-E7 right_in top_out"/>
    </vehicle>
    <vehicle id="217" depart="1171.80">
        <route edges="left_in right_out -E6"/>
    </vehicle>
    <vehicle id="219" depart="1182.60">
        <route edges="bottom_in right_out"/>
    </vehicle>
    <vehicle id="220" depart="1188.00">
        <route edges="right_in top_out"/>
    </vehicle>
    <vehicle id="221" depart="1193.40">
        <route edges="left_in top_out"/>
    </vehicle>
    <vehicle id="222" depart="1198.80">
        <route edges="top_in left_out"/>
    </vehicle>
    <vehicle id="223" depart="1204.20">
        <route edges="right_in left_out"/>
    </vehicle>
    <vehicle id="226" depart="1220.40">
        <route edges="bottom_in right_out E7"/>
    </vehicle>
    <vehicle id="227" depart="1225.80">
        <route edges="-E7 right_in"/>
    </vehicle>
    <vehicle id="230" depart="1242.00">
        <route edges="-E2 E7"/>
    </vehicle>
    <vehicle id="231" depart="1247.40">
        <route edges="E6 E7"/>
    </vehicle>
    <vehicle id="232" depart="1252.80">
        <route edges="left_in right_out E2"/>
    </vehicle>
    <vehicle id="233" depart="1258.20">
        <route edges="-E7 right_in"/>
    </vehicle>
    <vehicle id="235" depart="1269.00">
        <route edges="bottom_in left_out"/>
    </vehicle>
    <vehicle id="236" depart="1274.40">
        <route edges="bottom_in right_out E2"/>
    </vehicle>
    <vehicle id="237" depart="1279.80">
        <route edges="bottom_in top_out"/>
    </vehicle>
    <vehicle id="239" depart="1290.60">
        <route edges="right_out"/>
    </vehicle>
    <vehicle id="240" depart="1296.00">
        <route edges="bottom_in right_out -E6"/>
    </vehicle>
    <vehicle id="245" depart="1323.00">
        <route edges="-E7 E2"/>
    </vehicle>
    <vehicle id="246" depart="1328.40">
        <route edges="bottom_in right_out -E6"/>
    </vehicle>
    <vehicle id="247" depart="1333.80">
        <route edges="E6 right_in"/>
    </vehicle>
    <vehicle id="248" depart="1339.20">
        <route edges="bottom_in right_out E2"/>
    </vehicle>
    <vehicle id="249" depart="1344.60">
        <route edges="bottom_in right_out E2"/>
    </vehicle>
    <vehicle id="250" depart="1350.00">
        <route edges="left_in right_out -E6"/>
    </vehicle>
    <vehicle id="251" depart="1355.40">
        <route edges="bottom_in left_out"/>
    </vehicle>
    <vehicle id="252" depart="1360.80">
        <route edges="-E2 right_in"/>
    </vehicle>
    <vehicle id="253" depart="1366.20">
        <route edges="-E7 right_in bottom_out"/>
    </vehicle>
    <vehicle id="254" depart="1371.60">
        <route edges="-E2 right_in bottom_out"/>
    </vehicle>
    <vehicle id="257" depart="1387.80">
        <route edges="right_out"/>
    </vehicle>
    <vehicle id="259" depart="1398.60">
        <route edges="-E2 right_in left_out"/>
    </vehicle>
    <vehicle id="260" depart="1404.00">
        <route edges="top_in right_out E7"/>
    </vehicle>
    <vehicle id="263" depart="1420.20">
        <route edges="top_in right_out E2"/>
    </vehicle>
    <vehicle id="265" depart="1431.00">
        <route edges="-E7 right_in"/>
    </vehicle>
    <vehicle id="266" depart="1436.40">
        <route edges="left_in right_out E2"/>
    </vehicle>
    <vehicle id="268" depart="1447.20">
        <route edges="-E7 right_in left_out"/>
    </vehicle>
    <vehicle id="271" depart="1463.40">
        <route edges="-E2 -E6"/>
    </vehicle>
    <vehicle id="272" depart="1468.80">
        <route edges="E6 right_in"/>
    </vehicle>
    <vehicle id="273" depart="1474.20">
        <route edges="top_in bottom_out"/>
    </vehicle>
    <vehicle id="275" depart="1485.00">
        <route edges="right_in"/>
    </vehicle>
    <vehicle id="278" depart="1501.20">
        <route edges="-E2 right_in top_out"/>
    </vehicle>
    <vehicle id="279" depart="1506.60">
        <route edges="right_out E7"/>
    </vehicle>
    <vehicle id="280" depart="1512.00">
        <route edges="bottom_in right_out E7"/>
    </vehicle>
    <vehicle id="281" depart="1517.40">
        <route edges="left_in right_out E7"/>
    </vehicle>
    <vehicle id="282" depart="1522.80">
        <route edges="right_out"/>
    </vehicle>
    <vehicle id="283" depart="1528.20">
        <route edges="-E2 right_in top_out"/>
    </vehicle>
    <vehicle id="285" depart="1539.00">
        <route edges="right_in bottom_out"/>
    </vehicle>
    <vehicle id="286" depart="1544.40">
        <route edges="right_in top_out"/>
    </vehicle>
    <vehicle id="288" depart="1555.20">
        <route edges="left_in bottom_out"/>
    </vehicle>
    <vehicle id="291" depart="1571.40">
        <route edges="right_out -E6"/>
    </vehicle>
    <vehicle id="292" depart="1576.80">
        <route edges="top_in right_out E2"/>
    </vehicle>
    <vehicle id="293" depart="1582.20">
        <route edges="bottom_in left_out"/>
    </vehicle>
    <vehicle id="294" depart="1587.60">
        <route edges="bottom_in right_out -E6"/>
    </vehicle>
    <vehicle id="295" depart="1593.00">
        <route edges="right_out E2"/>
    </vehicle>
    <vehicle id="297" depart="1603.80">
        <route edges="E6 right_in top_out"/>
    </vehicle>
    <vehicle id="299" depart="1614.60">
        <route edges="-E2 right_in top_out"/>
    </vehicle>
    <vehicle id="300" depart="1620.00">
        <route edges="-E2 right_in"/>
    </vehicle>
    <vehicle id="301" depart="1625.40">
        <route edges="bottom_in right_out"/>
    </vehicle>
    <vehicle id="302" depart="1630.80">
        <route edges="right_in"/>
    </vehicle>
    <vehicle id="303" depart="1636.20">
        <route edges="bottom_in right_out"/>
    </vehicle>
    <vehicle id="306" depart="1652.40">
        <route edges="left_in bottom_out"/>
    </vehicle>
    <vehicle id="307" depart="1657.80">
        <route edges="left_in bottom_out"/>
    </vehicle>
    <vehicle id="311" depart="1679.40">
        <route edges="-E7 -E6"/>
    </vehicle>
    <vehicle id="312" depart="1684.80">
        <route edges="left_in right_out"/>
    </vehicle>
    <vehicle id="313" depart="1690.20">
        <route edges="-E7 E2"/>
    </vehicle>
    <vehicle id="315" depart="1701.00">
        <route edges="top_in left_out"/>
    </vehicle>
    <vehicle id="317" depart="1711.80">
        <route edges="-E7 E2"/>
    </vehicle>
    <vehicle id="318" depart="1717.20">
        <route edges="-E7 -E6"/>
    </vehicle>
    <vehicle id="319" depart="1722.60">
        <route edges="left_in right_out E7"/>
    </vehicle>
    <vehicle id="320" depart="1728.00">
        <route edges="top_in left_out"/>
    </vehicle>
    <vehicle id="325" depart="1755.00">
        <route edges="-E7 -E6"/>
    </vehicle>
    <vehicle id="326" depart="1760.40">
        <route edges="top_in bottom_out"/>
    </vehicle>
    <vehicle id="328" depart="1771.20">
        <route edges="-E2 right_in"/>
    </vehicle>
    <vehicle id="330" depart="1782.00">
        <route edges="left_in right_out E7"/>
    </vehicle>
    <vehicle id="331" depart="1787.40">
        <route edges="top_in right_out -E6"/>
    </vehicle>
    <vehicle id="333" depart="1798.20">
        <route edges="right_out E2"/>
    </vehicle>
    <vehicle id="334" depart="1803.60">
        <route edges="left_in bottom_out"/>
    </vehicle>
    <vehicle id="335" depart="1809.00">
        <route edges="bottom_in right_out"/>
    </vehicle>
    <vehicle id="336" depart="1814.40">
        <route edges="top_in right_out E7"/>
    </vehicle>
    <vehicle id="338" depart="1825.20">
        <route edges="right_in top_out"/>
    </vehicle>
    <vehicle id="339" depart="1830.60">
        <route edges="-E7 E2"/>
    </vehicle>
    <vehicle id="341" depart="1841.40">
        <route edges="-E7 -E6"/>
    </vehicle>
    <vehicle id="342" depart="1846.80">
        <route edges="-E2 right_in bottom_out"/>
    </vehicle>
    <vehicle id="343" depart="1852.20">
        <route edges="left_in right_out E7"/>
    </vehicle>
    <vehicle id="344" depart="1857.60">
        <route edges="-E7 right_in"/>
    </vehicle>
    <vehicle id="345" depart="1863.00">
        <route edges="right_in bottom_out"/>
    </vehicle>
    <vehicle id="346" depart="1868.40">
        <route edges="right_in top_out"/>
    </vehicle>
    <vehicle id="348" depart="1879.20">
        <route edges="right_in top_out"/>
    </vehicle>
    <vehicle id="349" depart="1884.60">
        <route edges="bottom_in left_out"/>
    </vehicle>
    <vehicle id="350" depart="1890.00">
        <route edges="right_in top_out"/>
    </vehicle>
    <vehicle id="351" depart="1895.40">
        <route edges="right_out -E6"/>
    </vehicle>
    <vehicle id="353" depart="1906.20">
        <route edges="right_in left_out"/>
    </vehicle>
    <vehicle id="355" depart="1917.00">
        <route edges="right_in"/>
    </vehicle>
    <vehicle id="356" depart="1922.40">
        <route edges="top_in left_out"/>
    </vehicle>
    <vehicle id="357" depart="1927.80">
        <route edges="bottom_in right_out -E6"/>
    </vehicle>
    <vehicle id="358" depart="1933.20">
        <route edges="-E2 right_in bottom_out"/>
    </vehicle>
    <vehicle id="359" depart="1938.60">
        <route edges="E6 E7"/>
    </vehicle>
    <vehicle id="360" depart="1944.00">
        <route edges="-E2 right_in top_out"/>
    </vehicle>
    <vehicle id="366" depart="1976.40">
        <route edges="top_in right_out E2"/>
    </vehicle>
    <vehicle id="368" depart="1987.20">
        <route edges="bottom_in right_out -E6"/>
    </vehicle>
    <vehicle id="369" depart="1992.60">
        <route edges="E6 E7"/>
    </vehicle>
    <vehicle id="371" depart="2003.40">
        <route edges="E6 right_in"/>
    </vehicle>
    <vehicle id="372" depart="2008.80">
        <route edges="E6 right_in top_out"/>
    </vehicle>
    <vehicle id="374" depart="2019.60">
        <route edges="bottom_in right_out E7"/>
    </vehicle>
    <vehicle id="375" depart="2025.00">
        <route edges="E6 right_in top_out"/>
    </vehicle>
    <vehicle id="376" depart="2030.40">
        <route edges="bottom_in left_out"/>
    </vehicle>
    <vehicle id="378" depart="2041.20">
        <route edges="left_in bottom_out"/>
    </vehicle>
    <vehicle id="381" depart="2057.40">
        <route edges="right_out E2"/>
    </vehicle>
    <vehicle id="382" depart="2062.80">
        <route edges="left_in top_out"/>
    </vehicle>
    <vehicle id="384" depart="2073.60">
        <route edges="-E2 right_in top_out"/>
    </vehicle>
    <vehicle id="385" depart="2079.00">
        <route edges="left_in right_out E2"/>
    </vehicle>
    <vehicle id="386" depart="2084.40">
        <route edges="-E7 right_in left_out"/>
    </vehicle>
    <vehicle id="387" depart="2089.80">
        <route edges="left_in right_out -E6"/>
    </vehicle>
    <vehicle id="389" depart="2100.60">
        <route edges="bottom_in right_out -E6"/>
    </vehicle>
    <vehicle id="391" depart="2111.40">
        <route edges="right_in left_out"/>
    </vehicle>
    <vehicle id="393" depart="2122.20">
        <route edges="top_in right_out E2"/>
    </vehicle>
    <vehicle id="394" depart="2127.60">
        <route edges="left_in bottom_out"/>
    </vehicle>
    <vehicle id="395" depart="2133.00">
        <route edges="top_in left_out"/>
    </vehicle>
    <vehicle id="396" depart="2138.40">
        <route edges="top_in right_out"/>
    </vehicle>
    <vehicle id="398" depart="2149.20">
        <route edges="bottom_in top_out"/>
    </vehicle>
    <vehicle id="399" depart="2154.60">
        <route edges="left_in right_out"/>
    </vehicle>
    <vehicle id="400" depart="2160.00">
        <route edges="E6 E7"/>
    </vehicle>
    <vehicle id="401" depart="2165.40">
        <route edges="left_in top_out"/>
    </vehicle>
    <vehicle id="402" depart="2170.80">
        <route edges="bottom_in right_out E2"/>
    </vehicle>
    <vehicle id="403" depart="2176.20">
        <route edges="left_in right_out E7"/>
    </vehicle>
    <vehicle id="405" depart="2187.00">
        <route edges="bottom_in right_out E7"/>
    </vehicle>
    <vehicle id="406" depart="2192.40">
        <route edges="-E7 right_in"/>
    </vehicle>
    <vehicle id="407" depart="2197.80">
        <route edges="left_in right_out E2"/>
    </vehicle>
    <vehicle id="408" depart="2203.20">
        <route edges="right_out -E6"/>
    </vehicle>
    <vehicle id="409" depart="2208.60">
        <route edges="right_in"/>
    </vehicle>
    <vehicle id="412" depart="2224.80">
        <route edges="top_in bottom_out"/>
    </vehicle>
    <vehicle id="413" depart="2230.20">
        <route edges="-E2 right_in left_out"/>
    </vehicle>
    <vehicle id="414" depart="2235.60">
        <route edges="left_in right_out"/>
    </vehicle>
    <vehicle id="416" depart="2246.40">
        <route edges="left_in bottom_out"/>
    </vehicle>
    <vehicle id="417" depart="2251.80">
        <route edges="right_in bottom_out"/>
    </vehicle>
    <vehicle id="419" depart="2262.60">
        <route edges="bottom_in top_out"/>
    </vehicle>
    <vehicle id="420" depart="2268.00">
        <route edges="E6 right_in"/>
    </vehicle>
    <vehicle id="422" depart="2278.80">
        <route edges="right_out"/>
    </vehicle>
    <vehicle id="423" depart="2284.20">
        <route edges="bottom_in right_out E7"/>
    </vehicle>
    <vehicle id="425" depart="2295.00">
        <route edges="right_out -E6"/>
    </vehicle>
    <vehicle id="426" depart="2300.40">
        <route edges="-E2 right_in"/>
    </vehicle>
    <vehicle id="428" depart="2311.20">
        <route edges="right_in bottom_out"/>
    </vehicle>
    <vehicle id="429" depart="2316.60">
        <route edges="-E2 right_in"/>
    </vehicle>
    <vehicle id="431" depart="2327.40">
        <route edges="right_in top_out"/>
    </vehicle>
    <vehicle id="433" depart="2338.20">
        <route edges="E6 E7"/>
    </vehicle>
    <vehicle id="434" depart="2343.60">
        <route edges="-E7 right_in left_out"/>
    </vehicle>
    <vehicle id="435" depart="2349.00">
        <route edges="left_in right_out"/>
    </vehicle>
    <vehicle id="436" depart="2354.40">
        <route edges="-E7 -E6"/>
    </vehicle>
    <vehicle id="438" depart="2365.20">
        <route edges="-E7 right_in top_out"/>
    </vehicle>
    <vehicle id="439" depart="2370.60">
        <route edges="-E7 right_in bottom_out"/>
    </vehicle>
    <vehicle id="440" depart="2376.00">
        <route edges="E6 E7"/>
    </vehicle>
    <vehicle id="443" depart="2392.20">