<?xml version="1.0" encoding="UTF-8"?>

<!-- generated on 2022-06-08 17:48:15 by Eclipse SUMO duarouter Version 1.13.0
<configuration xmlns:xsi="http://www.w3.org/2001/XMLSchema-instance" xsi:noNamespaceSchemaLocation="http://sumo.dlr.de/xsd/duarouterConfiguration.xsd">

    <input>
        <net-file value="2TL.net.xml"/>
        <route-files value="trips.xml"/>
    </input>

    <output>
        <output-file value="2TL.rou.xml"/>
        <alternatives-output value="2TL.rou.alt.xml"/>
    </output>

    <time>
        <begin value="0"/>
        <end value="3600"/>
    </time>

    <report>
        <no-warnings value="true"/>
        <ignore-errors value="true"/>
        <no-step-log value="true"/>
    </report>

</configuration>
-->

<routes xmlns:xsi="http://www.w3.org/2001/XMLSchema-instance" xsi:noNamespaceSchemaLocation="http://sumo.dlr.de/xsd/routes_file.xsd">
    <vehicle id="0" depart="0.00">
        <route edges="bottom_in right_out -E6"/>
    </vehicle>
    <vehicle id="1" depart="1.80">
        <route edges="-E7 E2"/>
    </vehicle>
    <vehicle id="3" depart="5.40">
        <route edges="top_in right_out -E6"/>
    </vehicle>
    <vehicle id="5" depart="9.00">
        <route edges="-E7 right_in bottom_out"/>
    </vehicle>
    <vehicle id="8" depart="14.40">
        <route edges="-E7 right_in bottom_out"/>
    </vehicle>
    <vehicle id="9" depart="16.20">
        <route edges="left_in right_out -E6"/>
    </vehicle>
    <vehicle id="12" depart="21.60">
        <route edges="top_in right_out E7"/>
    </vehicle>
    <vehicle id="13" depart="23.40">
        <route edges="-E2 -E6"/>
    </vehicle>
    <vehicle id="14" depart="25.20">
        <route edges="top_in bottom_out"/>
    </vehicle>
    <vehicle id="16" depart="28.80">
        <route edges="bottom_in top_out"/>
    </vehicle>
    <vehicle id="17" depart="30.60">
        <route edges="E6 right_in bottom_out"/>
    </vehicle>
    <vehicle id="18" depart="32.40">
        <route edges="left_in bottom_out"/>
    </vehicle>
    <vehicle id="19" depart="34.20">
        <route edges="top_in bottom_out"/>
    </vehicle>
    <vehicle id="20" depart="36.00">
        <route edges="left_in right_out -E6"/>
    </vehicle>
    <vehicle id="21" depart="37.80">
        <route edges="-E7 E2"/>
    </vehicle>
    <vehicle id="24" depart="43.20">
        <route edges="bottom_in right_out E7"/>
    </vehicle>
    <vehicle id="25" depart="45.00">
        <route edges="E6 E2"/>
    </vehicle>
    <vehicle id="26" depart="46.80">
        <route edges="-E7 right_in top_out"/>
    </vehicle>
    <vehicle id="28" depart="50.40">
        <route edges="-E7 right_in left_out"/>
    </vehicle>
    <vehicle id="29" depart="52.20">
        <route edges="-E2 E7"/>
    </vehicle>
    <vehicle id="30" depart="54.00">
        <route edges="top_in bottom_out"/>
    </vehicle>
    <vehicle id="31" depart="55.80">
        <route edges="bottom_in left_out"/>
    </vehicle>
    <vehicle id="32" depart="57.60">
        <route edges="top_in left_out"/>
    </vehicle>
    <vehicle id="33" depart="59.40">
        <route edges="-E7 -E6"/>
    </vehicle>
    <vehicle id="34" depart="61.20">
        <route edges="-E7 E2"/>
    </vehicle>
    <vehicle id="35" depart="63.00">
        <route edges="-E7 right_in top_out"/>
    </vehicle>
    <vehicle id="36" depart="64.80">
        <route edges="top_in right_out E2"/>
    </vehicle>
    <vehicle id="37" depart="66.60">
        <route edges="bottom_in right_out E7"/>
    </vehicle>
    <vehicle id="38" depart="68.40">
        <route edges="top_in right_out E7"/>
    </vehicle>
    <vehicle id="39" depart="70.20">
        <route edges="-E7 E2"/>
    </vehicle>
    <vehicle id="40" depart="72.00">
        <route edges="bottom_in right_out E2"/>
    </vehicle>
    <vehicle id="41" depart="73.80">
        <route edges="bottom_in top_out"/>
    </vehicle>
    <vehicle id="42" depart="75.60">
        <route edges="E6 E2"/>
    </vehicle>
    <vehicle id="43" depart="77.40">
        <route edges="top_in bottom_out"/>
    </vehicle>
    <vehicle id="44" depart="79.20">
        <route edges="-E2 -E6"/>
    </vehicle>
    <vehicle id="45" depart="81.00">
        <route edges="-E2 right_in bottom_out"/>
    </vehicle>
    <vehicle id="46" depart="82.80">
        <route edges="left_in right_out E7"/>
    </vehicle>
    <vehicle id="47" depart="84.60">
        <route edges="-E2 E7"/>
    </vehicle>
    <vehicle id="48" depart="86.40">
        <route edges="top_in bottom_out"/>
    </vehicle>
    <vehicle id="50" depart="90.00">
        <route edges="-E2 right_in left_out"/>
    </vehicle>
    <vehicle id="51" depart="91.80">
        <route edges="left_in bottom_out"/>
    </vehicle>
    <vehicle id="52" depart="93.60">
        <route edges="-E7 right_in bottom_out"/>
    </vehicle>
    <vehicle id="53" depart="95.40">
        <route edges="-E2 E7"/>
    </vehicle>
    <vehicle id="54" depart="97.20">
        <route edges="E6 right_in top_out"/>
    </vehicle>
    <vehicle id="55" depart="99.00">
        <route edges="top_in right_out E2"/>
    </vehicle>
    <vehicle id="56" depart="100.80">
        <route edges="bottom_in right_out E2"/>
    </vehicle>
    <vehicle id="58" depart="104.40">
        <route edges="-E7 right_in bottom_out"/>
    </vehicle>
    <vehicle id="59" depart="106.20">
        <route edges="bottom_in right_out -E6"/>
    </vehicle>
    <vehicle id="60" depart="108.00">
        <route edges="left_in bottom_out"/>
    </vehicle>
    <vehicle id="61" depart="109.80">
        <route edges="left_in bottom_out"/>
    </vehicle>
    <vehicle id="63" depart="113.40">
        <route edges="-E2 right_in top_out"/>
    </vehicle>
    <vehicle id="64" depart="115.20">
        <route edges="top_in left_out"/>
    </vehicle>
    <vehicle id="65" depart="117.00">
        <route edges="-E7 -E6"/>
    </vehicle>
    <vehicle id="67" depart="120.60">
        <route edges="-E2 E7"/>
    </vehicle>
    <vehicle id="68" depart="122.40">
        <route edges="-E2 right_in left_out"/>
    </vehicle>
    <vehicle id="69" depart="124.20">
        <route edges="left_in right_out -E6"/>
    </vehicle>
    <vehicle id="70" depart="126.00">
        <route edges="E6 right_in bottom_out"/>
    </vehicle>
    <vehicle id="71" depart="127.80">
        <route edges="-E7 right_in top_out"/>
    </vehicle>
    <vehicle id="72" depart="129.60">
        <route edges="E6 E2"/>
    </vehicle>
    <vehicle id="73" depart="131.40">
        <route edges="bottom_in left_out"/>
    </vehicle>
    <vehicle id="74" depart="133.20">
        <route edges="-E7 E2"/>
    </vehicle>
    <vehicle id="75" depart="135.00">
        <route edges="top_in bottom_out"/>
    </vehicle>
    <vehicle id="76" depart="136.80">
        <route edges="E6 right_in bottom_out"/>
    </vehicle>
    <vehicle id="78" depart="140.40">
        <route edges="E6 right_in bottom_out"/>
    </vehicle>
    <vehicle id="79" depart="142.20">
        <route edges="-E7 E2"/>
    </vehicle>
    <vehicle id="80" depart="144.00">
        <route edges="-E2 right_in bottom_out"/>
    </vehicle>
    <vehicle id="81" depart="145.80">
        <route edges="-E7 right_in top_out"/>
    </vehicle>
    <vehicle id="82" depart="147.60">
        <route edges="top_in right_out -E6"/>
    </vehicle>
    <vehicle id="83" depart="149.40">
        <route edges="-E7 right_in left_out"/>
    </vehicle>
    <vehicle id="84" depart="151.20">
        <route edges="-E7 -E6"/>
    </vehicle>
    <vehicle id="85" depart="153.00">
        <route edges="top_in bottom_out"/>
    </vehicle>
    <vehicle id="86" depart="154.80">
        <route edges="E6 right_in left_out"/>
    </vehicle>
    <vehicle id="87" depart="156.60">
        <route edges="left_in right_out E2"/>
    </vehicle>
    <vehicle id="88" depart="158.40">
        <route edges="-E2 E7"/>
    </vehicle>
    <vehicle id="89" depart="160.20">
        <route edges="E6 E7"/>
    </vehicle>
    <vehicle id="91" depart="163.80">
        <route edges="top_in right_out -E6"/>
    </vehicle>
    <vehicle id="92" depart="165.60">
        <route edges="E6 E7"/>
    </vehicle>
    <vehicle id="93" depart="167.40">
        <route edges="top_in right_out E2"/>
    </vehicle>
    <vehicle id="95" depart="171.00">
        <route edges="E6 E2"/>
    </vehicle>
    <vehicle id="96" depart="172.80">
        <route edges="-E7 right_in top_out"/>
    </vehicle>
    <vehicle id="97" depart="174.60">
        <route edges="E6 right_in top_out"/>
    </vehicle>
    <vehicle id="98" depart="176.40">
        <route edges="bottom_in right_out -E6"/>
    </vehicle>
    <vehicle id="101" depart="181.80">
        <route edges="top_in right_out -E6"/>
    </vehicle>
    <vehicle id="102" depart="183.60">
        <route edges="E6 E2"/>
    </vehicle>
    <vehicle id="104" depart="187.20">
        <route edges="E6 right_in top_out"/>
    </vehicle>
    <vehicle id="105" depart="189.00">
        <route edges="-E7 right_in left_out"/>
    </vehicle>
    <vehicle id="106" depart="190.80">
        <route edges="E6 E7"/>
    </vehicle>
    <vehicle id="108" depart="194.40">
        <route edges="bottom_in left_out"/>
    </vehicle>
    <vehicle id="110" depart="198.00">
        <route edges="top_in bottom_out"/>
    </vehicle>
    <vehicle id="111" depart="199.80">
        <route edges="bottom_in left_out"/>
    </vehicle>
    <vehicle id="112" depart="201.60">
        <route edges="-E2 right_in bottom_out"/>
    </vehicle>
    <vehicle id="113" depart="203.40">
        <route edges="bottom_in top_out"/>
    </vehicle>
    <vehicle id="114" depart="205.20">
        <route edges="-E2 right_in top_out"/>
    </vehicle>
    <vehicle id="116" depart="208.80">
        <route edges="bottom_in left_out"/>
    </vehicle>
    <vehicle id="117" depart="210.60">
        <route edges="-E7 -E6"/>
    </vehicle>
    <vehicle id="118" depart="212.40">
        <route edges="top_in right_out E2"/>
    </vehicle>
    <vehicle id="120" depart="216.00">
        <route edges="E6 right_in bottom_out"/>
    </vehicle>
    <vehicle id="121" depart="217.80">
        <route edges="bottom_in top_out"/>
    </vehicle>
    <vehicle id="122" depart="219.60">
        <route edges="-E7 right_in left_out"/>
    </vehicle>
    <vehicle id="124" depart="223.20">
        <route edges="left_in right_out E2"/>
    </vehicle>
    <vehicle id="125" depart="225.00">
        <route edges="-E7 right_in left_out"/>
    </vehicle>
    <vehicle id="126" depart="226.80">
        <route edges="-E2 E7"/>
    </vehicle>
    <vehicle id="129" depart="232.20">
        <route edges="-E7 right_in top_out"/>
    </vehicle>
    <vehicle id="132" depart="237.60">
        <route edges="top_in left_out"/>
    </vehicle>
    <vehicle id="133" depart="239.40">
        <route edges="bottom_in top_out"/>
    </vehicle>
    <vehicle id="134" depart="241.20">
        <route edges="bottom_in right_out -E6"/>
    </vehicle>
    <vehicle id="135" depart="243.00">
        <route edges="left_in right_out E2"/>
    </vehicle>
    <vehicle id="136" depart="244.80">
        <route edges="bottom_in top_out"/>
    </vehicle>
    <vehicle id="137" depart="246.60">
        <route edges="-E2 -E6"/>
    </vehicle>
    <vehicle id="138" depart="248.40">
        <route edges="-E2 right_in bottom_out"/>
    </vehicle>
    <vehicle id="139" depart="250.20">
        <route edges="-E7 right_in bottom_out"/>
    </vehicle>
    <vehicle id="140" depart="252.00">
        <route edges="left_in right_out E2"/>
    </vehicle>
    <vehicle id="141" depart="253.80">
        <route edges="bottom_in right_out E2"/>
    </vehicle>
    <vehicle id="142" depart="255.60">
        <route edges="E6 right_in top_out"/>
    </vehicle>
    <vehicle id="143" depart="257.40">
        <route edges="top_in right_out -E6"/>
    </vehicle>
    <vehicle id="144" depart="259.20">
        <route edges="E6 E2"/>
    </vehicle>
    <vehicle id="145" depart="261.00">
        <route edges="-E2 right_in left_out"/>
    </vehicle>
    <vehicle id="146" depart="262.80">
        <route edges="bottom_in right_out E2"/>
    </vehicle>
    <vehicle id="147" depart="264.60">
        <route edges="left_in bottom_out"/>
    </vehicle>
    <vehicle id="149" depart="268.20">
        <route edges="-E2 right_in top_out"/>
    </vehicle>
    <vehicle id="150" depart="270.00">
        <route edges="top_in bottom_out"/>
    </vehicle>
    <vehicle id="151" depart="271.80">
        <route edges="top_in bottom_out"/>
    </vehicle>
    <vehicle id="152" depart="273.60">
        <route edges="-E2 -E6"/>
    </vehicle>
    <vehicle id="153" depart="275.40">
        <route edges="-E7 right_in top_out"/>
    </vehicle>
    <vehicle id="154" depart="277.20">
        <route edges="left_in top_out"/>
    </vehicle>
    <vehicle id="155" depart="279.00">
        <route edges="top_in right_out E2"/>
    </vehicle>
    <vehicle id="156" depart="280.80">
        <route edges="-E7 -E6"/>
    </vehicle>
    <vehicle id="157" depart="282.60">
        <route edges="left_in top_out"/>
    </vehicle>
    <vehicle id="158" depart="284.40">
        <route edges="E6 right_in bottom_out"/>
    </vehicle>
    <vehicle id="159" depart="286.20">
        <route edges="-E2 right_in top_out"/>
    </vehicle>
    <vehicle id="161" depart="289.80">
        <route edges="left_in top_out"/>
    </vehicle>
    <vehicle id="162" depart="291.60">
        <route edges="-E2 right_in left_out"/>
    </vehicle>
    <vehicle id="163" depart="293.40">
        <route edges="-E7 right_in top_out"/>
    </vehicle>
    <vehicle id="164" depart="295.20">
        <route edges="left_in top_out"/>
    </vehicle>
    <vehicle id="165" depart="297.00">
        <route edges="left_in right_out E2"/>
    </vehicle>
    <vehicle id="166" depart="298.80">
        <route edges="left_in right_out -E6"/>
    </vehicle>
    <vehicle id="168" depart="302.40">
        <route edges="-E7 right_in left_out"/>
    </vehicle>
    <vehicle id="169" depart="304.20">
        <route edges="E6 E2"/>
    </vehicle>
    <vehicle id="170" depart="306.00">
        <route edges="left_in right_out E2"/>
    </vehicle>
    <vehicle id="172" depart="309.60">
        <route edges="-E7 right_in top_out"/>
    </vehicle>
    <vehicle id="173" depart="311.40">
        <route edges="top_in right_out E2"/>
    </vehicle>
    <vehicle id="174" depart="313.20">
        <route edges="bottom_in right_out E7"/>
    </vehicle>
    <vehicle id="175" depart="315.00">
        <route edges="top_in bottom_out"/>
    </vehicle>
    <vehicle id="176" depart="316.80">
        <route edges="top_in right_out -E6"/>
    </vehicle>
    <vehicle id="177" depart="318.60">
        <route edges="top_in right_out E2"/>
    </vehicle>
    <vehicle id="178" depart="320.40">
        <route edges="top_in right_out E2"/>
    </vehicle>
    <vehicle id="179" depart="322.20">
        <route edges="-E2 E7"/>
    </vehicle>
    <vehicle id="180" depart="324.00">
        <route edges="left_in right_out E2"/>
    </vehicle>
    <vehicle id="182" depart="327.60">
        <route edges="E6 right_in bottom_out"/>
    </vehicle>
    <vehicle id="183" depart="329.40">
        <route edges="-E7 right_in left_out"/>
    </vehicle>
    <vehicle id="184" depart="331.20">
        <route edges="-E2 right_in top_out"/>
    </vehicle>
    <vehicle id="185" depart="333.00">
        <route edges="bottom_in left_out"/>
    </vehicle>
    <vehicle id="188" depart="338.40">
        <route edges="bottom_in right_out E2"/>
    </vehicle>
    <vehicle id="189" depart="340.20">
        <route edges="-E7 right_in top_out"/>
    </vehicle>
    <vehicle id="190" depart="342.00">
        <route edges="left_in right_out E2"/>
    </vehicle>
    <vehicle id="192" depart="345.60">
        <route edges="E6 E2"/>
    </vehicle>
    <vehicle id="193" depart="347.40">
        <route edges="-E2 E7"/>
    </vehicle>
    <vehicle id="194" depart="349.20">
        <route edges="top_in left_out"/>
    </vehicle>
    <vehicle id="195" depart="351.00">
        <route edges="top_in bottom_out"/>
    </vehicle>
    <vehicle id="196" depart="352.80">
        <route edges="-E7 right_in bottom_out"/>
    </vehicle>
    <vehicle id="198" depart="356.40">
        <route edges="E6 right_in bottom_out"/>
    </vehicle>
    <vehicle id="199" depart="358.20">
        <route edges="bottom_in right_out E7"/>
    </vehicle>
    <vehicle id="200" depart="360.00">
        <route edges="E6 E2"/>
    </vehicle>
    <vehicle id="201" depart="361.80">
        <route edges="E6 right_in top_out"/>
    </vehicle>
    <vehicle id="202" depart="363.60">
        <route edges="left_in right_out E2"/>
    </vehicle>
    <vehicle id="203" depart="365.40">
        <route edges="-E2 right_in bottom_out"/>
    </vehicle>
    <vehicle id="204" depart="367.20">
        <route edges="bottom_in right_out E7"/>
    </vehicle>
    <vehicle id="206" depart="370.80">
        <route edges="left_in right_out E2"/>
    </vehicle>
    <vehicle id="207" depart="372.60">
        <route edges="-E7 -E6"/>
    </vehicle>
    <vehicle id="209" depart="376.20">
        <route edges="top_in right_out -E6"/>
    </vehicle>
    <vehicle id="210" depart="378.00">
        <route edges="E6 right_in bottom_out"/>
    </vehicle>
    <vehicle id="211" depart="379.80">
        <route edges="-E7 right_in left_out"/>
    </vehicle>
    <vehicle id="212" depart="381.60">
        <route edges="E6 E2"/>
    </vehicle>
    <vehicle id="213" depart="383.40">
        <route edges="bottom_in right_out -E6"/>
    </vehicle>
    <vehicle id="215" depart="387.00">
        <route edges="-E2 E7"/>
    </vehicle>
    <vehicle id="216" depart="388.80">
        <route edges="-E7 right_in top_out"/>
    </vehicle>
    <vehicle id="217" depart="390.60">
        <route edges="bottom_in right_out -E6"/>
    </vehicle>
    <vehicle id="218" depart="392.40">
        <route edges="-E7 right_in top_out"/>
    </vehicle>
    <vehicle id="219" depart="394.20">
        <route edges="E6 right_in left_out"/>
    </vehicle>
    <vehicle id="220" depart="396.00">
        <route edges="left_in top_out"/>
    </vehicle>
    <vehicle id="221" depart="397.80">
        <route edges="bottom_in top_out"/>
    </vehicle>
    <vehicle id="222" depart="399.60">
        <route edges="top_in bottom_out"/>
    </vehicle>
    <vehicle id="223" depart="401.40">
        <route edges="left_in bottom_out"/>
    </vehicle>
    <vehicle id="224" depart="403.20">
        <route edges="left_in bottom_out"/>
    </vehicle>
    <vehicle id="225" depart="405.00">
        <route edges="top_in left_out"/>
    </vehicle>
    <vehicle id="226" depart="406.80">
        <route edges="E6 E2"/>
    </vehicle>
    <vehicle id="227" depart="408.60">
        <route edges="-E7 right_in bottom_out"/>
    </vehicle>
    <vehicle id="228" depart="410.40">
        <route edges="left_in bottom_out"/>
    </vehicle>
    <vehicle id="229" depart="412.20">
        <route edges="bottom_in right_out E2"/>
    </vehicle>
    <vehicle id="231" depart="415.80">
        <route edges="-E7 E2"/>
    </vehicle>
    <vehicle id="232" depart="417.60">
        <route edges="bottom_in right_out -E6"/>
    </vehicle>
    <vehicle id="233" depart="419.40">
        <route edges="-E7 right_in left_out"/>
    </vehicle>
    <vehicle id="234" depart="421.20">
        <route edges="left_in right_out -E6"/>
    </vehicle>
    <vehicle id="235" depart="423.00">
        <route edges="E6 right_in bottom_out"/>
    </vehicle>
    <vehicle id="236" depart="424.80">
        <route edges="E6 E2"/>
    </vehicle>
    <vehicle id="237" depart="426.60">
        <route edges="E6 right_in top_out"/>
    </vehicle>
    <vehicle id="238" depart="428.40">
        <route edges="bottom_in left_out"/>
    </vehicle>
    <vehicle id="239" depart="430.20">
        <route edges="top_in left_out"/>
    </vehicle>
    <vehicle id="241" depart="433.80">
        <route edges="E6 right_in left_out"/>
    </vehicle>
    <vehicle id="243" depart="437.40">
        <route edges="E6 right_in left_out"/>
    </vehicle>
    <vehicle id="245" depart="441.00">
        <route edges="-E7 E2"/>
    </vehicle>
    <vehicle id="247" depart="444.60">
        <route edges="E6 right_in left_out"/>
    </vehicle>
    <vehicle id="250" depart="450.00">
        <route edges="bottom_in right_out -E6"/>
    </vehicle>
    <vehicle id="251" depart="451.80">
        <route edges="E6 right_in bottom_out"/>
    </vehicle>
    <vehicle id="252" depart="453.60">
        <route edges="-E2 right_in bottom_out"/>
    </vehicle>
    <vehicle id="253" depart="455.40">
        <route edges="-E2 E7"/>
    </vehicle>
    <vehicle id="254" depart="457.20">
        <route edges="-E2 E7"/>
    </vehicle>
    <vehicle id="255" depart="459.00">
        <route edges="-E7 E2"/>
    </vehicle>
    <vehicle id="256" depart="460.80">
        <route edges="left_in right_out E7"/>
    </vehicle>
    <vehicle id="258" depart="464.40">
        <route edges="-E7 -E6"/>
    </vehicle>
    <vehicle id="259" depart="466.20">
        <route edges="-E2 right_in bottom_out"/>
    </vehicle>
    <vehicle id="260" depart="468.00">
        <route edges="top_in right_out E7"/>
    </vehicle>
    <vehicle id="261" depart="469.80">
        <route edges="bottom_in left_out"/>
    </vehicle>
    <vehicle id="262" depart="471.60">
        <route edges="bottom_in left_out"/>
    </vehicle>
    <vehicle id="263" depart="473.40">
        <route edges="top_in right_out E2"/>
    </vehicle>
    <vehicle id="264" depart="475.20">
        <route edges="-E2 -E6"/>
    </vehicle>
    <vehicle id="265" depart="477.00">
        <route edges="-E2 right_in left_out"/>
    </vehicle>
    <vehicle id="266" depart="478.80">
        <route edges="bottom_in right_out E2"/>
    </vehicle>
    <vehicle id="268" depart="482.40">
        <route edges="-E7 right_in bottom_out"/>
    </vehicle>
    <vehicle id="269" depart="484.20">
        <route edges="left_in right_out -E6"/>
    </vehicle>
    <vehicle id="270" depart="486.00">
        <route edges="left_in top_out"/>
    </vehicle>
    <vehicle id="271" depart="487.80">
        <route edges="-E2 -E6"/>
    </vehicle>
    <vehicle id="272" depart="489.60">
        <route edges="-E7 right_in left_out"/>
    </vehicle>
    <vehicle id="273" depart="491.40">
        <route edges="top_in right_out E7"/>
    </vehicle>
    <vehicle id="274" depart="493.20">
        <route edges="left_in right_out -E6"/>
    </vehicle>
    <vehicle id="275" depart="495.00">
        <route edges="left_in bottom_out"/>
    </vehicle>
    <vehicle id="276" depart="496.80">
        <route edges="-E2 right_in left_out"/>
    </vehicle>
    <vehicle id="277" depart="498.60">
        <route edges="top_in bottom_out"/>
    </vehicle>
    <vehicle id="278" depart="500.40">
        <route edges="-E2 right_in top_out"/>
    </vehicle>
    <vehicle id="279" depart="502.20">
        <route edges="left_in right_out E7"/>
    </vehicle>
    <vehicle id="280" depart="504.00">
        <route edges="E6 E7"/>
    </vehicle>
    <vehicle id="281" depart="505.80">
        <route edges="bottom_in right_out E7"/>
    </vehicle>
    <vehicle id="282" depart="507.60">
        <route edges="top_in left_out"/>
    </vehicle>
    <vehicle id="283" depart="509.40">
        <route edges="-E2 right_in top_out"/>
    </vehicle>
    <vehicle id="284" depart="511.20">
        <route edges="bottom_in left_out"/>
    </vehicle>
    <vehicle id="285" depart="513.00">
        <route edges="left_in right_out E7"/>
    </vehicle>
    <vehicle id="286" depart="514.80">
        <route edges="left_in top_out"/>
    </vehicle>
    <vehicle id="287" depart="516.60">
        <route edges="-E7 right_in left_out"/>
    </vehicle>
    <vehicle id="288" depart="518.40">
        <route edges="bottom_in right_out E7"/>
    </vehicle>
    <vehicle id="289" depart="520.20">
        <route edges="E6 right_in left_out"/>
    </vehicle>
    <vehicle id="290" depart="522.00">
        <route edges="-E7 right_in top_out"/>
    </vehicle>
    <vehicle id="291" depart="523.80">
        <route edges="left_in right_out -E6"/>
    </vehicle>
    <vehicle id="292" depart="525.60">
        <route edges="top_in right_out E2"/>
    </vehicle>
    <vehicle id="293" depart="527.40">
        <route edges="E6 right_in bottom_out"/>
    </vehicle>
    <vehicle id="295" depart="531.00">
        <route edges="top_in right_out E2"/>
    </vehicle>
    <vehicle id="296" depart="532.80">
        <route edges="-E7 right_in left_out"/>
    </vehicle>
    <vehicle id="297" depart="534.60">
        <route edges="E6 right_in top_out"/>
    </vehicle>
    <vehicle id="298" depart="536.40">
        <route edges="left_in right_out E2"/>
    </vehicle>
    <vehicle id="299" depart="538.20">
        <route edges="-E2 right_in top_out"/>
    </vehicle>
    <vehicle id="300" depart="540.00">
        <route edges="-E2 right_in left_out"/>
    </vehicle>
    <vehicle id="301" depart="541.80">
        <route edges="E6 right_in left_out"/>
    </vehicle>
    <vehicle id="302" depart="543.60">
        <route edges="left_in bottom_out"/>
    </vehicle>
    <vehicle id="303" depart="545.40">
        <route edges="E6 right_in left_out"/>
    </vehicle>
    <vehicle id="305" depart="549.00">
        <route edges="left_in right_out E2"/>
    </vehicle>
    <vehicle id="306" depart="550.80">
        <route edges="bottom_in right_out E7"/>
    </vehicle>
    <vehicle id="307" depart="552.60">
        <route edges="bottom_in right_out E7"/>
    </vehicle>
    <vehicle id="308" depart="554.40">
        <route edges="left_in right_out E2"/>
    </vehicle>
    <vehicle id="309" depart="556.20">
        <route edges="left_in right_out E2"/>
    </vehicle>
    <vehicle id="310" depart="558.00">
        <route edges="-E7 -E6"/>
    </vehicle>
    <vehicle id="311" depart="559.80">
        <route edges="-E7 -E6"/>
    </vehicle>
    <vehicle id="312" depart="561.60">
        <route edges="bottom_in left_out"/>
    </vehicle>
    <vehicle id="313" depart="563.40">
        <route edges="-E7 E2"/>
    </vehicle>
    <vehicle id="314" depart="565.20">
        <route edges="E6 right_in left_out"/>
    </vehicle>
    <vehicle id="315" depart="567.00">
        <route edges="top_in bottom_out"/>
    </vehicle>
    <vehicle id="316" depart="568.80">
        <route edges="-E7 -E6"/>
    </vehicle>
    <vehicle id="317" depart="570.60">
        <route edges="-E7 E2"/>
    </vehicle>
    <vehicle id="318" depart="572.40">
        <route edges="-E7 -E6"/>
    </vehicle>
    <vehicle id="319" depart="574.20">
        <route edges="bottom_in right_out E2"/>
    </vehicle>
    <vehicle id="320" depart="576.00">
        <route edges="top_in bottom_out"/>
    </vehicle>
    <vehicle id="321" depart="577.80">
        <route edges="left_in right_out -E6"/>
    </vehicle>
    <vehicle id="322" depart="579.60">
        <route edges="top_in right_out E7"/>
    </vehicle>
    <vehicle id="323" depart="581.40">
        <route edges="top_in bottom_out"/>
    </vehicle>
    <vehicle id="324" depart="583.20">
        <route edges="E6 E7"/>
    </vehicle>
    <vehicle id="325" depart="585.00">
        <route edges="-E7 -E6"/>
    </vehicle>
    <vehicle id="326" depart="586.80">
        <route edges="top_in right_out E7"/>
    </vehicle>
    <vehicle id="327" depart="588.60">
        <route edges="left_in right_out E7"/>
    </vehicle>
    <vehicle id="328" depart="590.40">
        <route edges="-E2 right_in bottom_out"/>
    </vehicle>
    <vehicle id="329" depart="592.20">
        <route edges="-E2 -E6"/>
    </vehicle>
    <vehicle id="330" depart="594.00">
        <route edges="bottom_in right_out E2"/>
    </vehicle>
    <vehicle id="331" depart="595.80">
        <route edges="top_in right_out -E6"/>
    </vehicle>
    <vehicle id="332" depart="597.60">
        <route edges="left_in bottom_out"/>
    </vehicle>
    <vehicle id="333" depart="599.40">
        <route edges="left_in right_out E2"/>
    </vehicle>
    <vehicle id="334" depart="601.20">
        <route edges="bottom_in right_out E7"/>
    </vehicle>
    <vehicle id="335" depart="603.00">
        <route edges="E6 right_in top_out"/>
    </vehicle>
    <vehicle id="336" depart="604.80">
        <route edges="top_in right_out E2"/>
    </vehicle>
    <vehicle id="338" depart="608.40">
        <route edges="left_in top_out"/>
    </vehicle>
    <vehicle id="339" depart="610.20">
        <route edges="-E7 E2"/>
    </vehicle>
    <vehicle id="340" depart="612.00">
        <route edges="bottom_in right_out -E6"/>
    </vehicle>
    <vehicle id="341" depart="613.80">
        <route edges="-E7 -E6"/>
    </vehicle>
    <vehicle id="342" depart="615.60">
        <route edges="-E2 E7"/>
    </vehicle>
    <vehicle id="343" depart="617.40">
        <route edges="bottom_in right_out E2"/>
    </vehicle>
    <vehicle id="344" depart="619.20">
        <route edges="-E7 right_in left_out"/>
    </vehicle>
    <vehicle id="345" depart="621.00">
        <route edges="left_in right_out E7"/>
    </vehicle>
    <vehicle id="346" depart="622.80">
        <route edges="left_in top_out"/>
    </vehicle>
    <vehicle id="347" depart="624.60">
        <route edges="left_in bottom_out"/>
    </vehicle>
    <vehicle id="348" depart="626.40">
        <route edges="bottom_in top_out"/>
    </vehicle>
    <vehicle id="349" depart="628.20">
        <route edges="E6 right_in bottom_out"/>
    </vehicle>
    <vehicle id="350" depart="630.00">
        <route edges="bottom_in top_out"/>
    </vehicle>
    <vehicle id="351" depart="631.80">
        <route edges="left_in right_out -E6"/>
    </vehicle>
    <vehicle id="353" depart="635.40">
        <route edges="left_in bottom_out"/>
    </vehicle>
    <vehicle id="354" depart="637.20">
        <route edges="-E7 -E6"/>
    </vehicle>
    <vehicle id="356" depart="640.80">
        <route edges="top_in bottom_out"/>