<routes>
    <vType accel="0.8" id="standard_car" decel="4.5" length="5.0" minGap="2.5" maxSpeed="16.67" sigma="0.5" />
    
    <route id="bottom_in_to_right_out" edges="bottom_in right_out" />
    <route id="bottom_in_to_top_out" edges="bottom_in top_out" />
    <route id="bottom_in_to_left_out" edges="bottom_in left_out" />
    <route id="left_in_to_bottom_out" edges="left_in bottom_out" />
    <route id="left_in_to_right_out" edges="left_in right_out" />
    <route id="left_in_to_top_out" edges="left_in top_out" />
    <route id="right_in_to_top_out" edges="right_in top_out" />
    <route id="right_in_to_left_out" edges="right_in left_out" />
    <route id="right_in_to_bottom_out" edges="right_in bottom_out" />
    <route id="top_in_to_left_out" edges="top_in left_out" />
    <route id="top_in_to_bottom_out" edges="top_in bottom_out" />
    <route id="top_in_to_right_out" edges="top_in right_out" />
    <vehicle id="right_in_to_left_out_0" type="standard_car" route="right_in_to_left_out" depart="28.0" departLane="allowed" />
    <vehicle id="left_in_to_right_out_1" type="standard_car" route="left_in_to_right_out" depart="45.0" departLane="allowed" />
    <vehicle id="right_in_to_top_out_2" type="standard_car" route="right_in_to_top_out" depart="62.0" departLane="allowed" />
    <vehicle id="right_in_to_left_out_3" type="standard_car" route="right_in_to_left_out" depart="75.0" departLane="allowed" />
    <vehicle id="right_in_to_left_out_4" type="standard_car" route="right_in_to_left_out" depart="82.0" departLane="allowed" />
    <vehicle id="right_in_to_left_out_5" type="standard_car" route="right_in_to_left_out" depart="86.0" departLane="allowed" />
    <vehicle id="left_in_to_top_out_6" type="standard_car" route="left_in_to_top_out" depart="107.0" departLane="allowed" />
    <vehicle id="left_in_to_right_out_7" type="standard_car" route="left_in_to_right_out" depart="129.0" departLane="allowed" />
    <vehicle id="bottom_in_to_top_out_8" type="standard_car" route="bottom_in_to_top_out" depart="130.0" departLane="allowed" />
    <vehicle id="top_in_to_bottom_out_9" type="standard_car" route="top_in_to_bottom_out" depart="132.0" departLane="allowed" />
    <vehicle id="bottom_in_to_top_out_10" type="standard_car" route="bottom_in_to_top_out" depart="133.0" departLane="allowed" />
    <vehicle id="top_in_to_left_out_11" type="standard_car" route="top_in_to_left_out" depart="139.0" departLane="allowed" />
    <vehicle id="top_in_to_bottom_out_12" type="standard_car" route="top_in_to_bottom_out" depart="150.0" departLane="allowed" />
    <vehicle id="bottom_in_to_top_out_13" type="standard_car" route="bottom_in_to_top_out" depart="154.0" departLane="allowed" />
    <vehicle id="right_in_to_left_out_14" type="standard_car" route="right_in_to_left_out" depart="154.0" departLane="allowed" />
    <vehicle id="right_in_to_left_out_15" type="standard_car" route="right_in_to_left_out" depart="157.0" departLane="allowed" />
    <vehicle id="right_in_to_top_out_16" type="standard_car" route="right_in_to_top_out" depart="164.0" departLane="allowed" />
    <vehicle id="left_in_to_right_out_17" type="standard_car" route="left_in_to_right_out" depart="165.0" departLane="allowed" />
    <vehicle id="left_in_to_right_out_18" type="standard_car" route="left_in_to_right_out" depart="167.0" departLane="allowed" />
    <vehicle id="right_in_to_left_out_19" type="standard_car" route="right_in_to_left_out" depart="167.0" departLane="allowed" />
    <vehicle id="bottom_in_to_top_out_20" type="standard_car" route="bottom_in_to_top_out" depart="171.0" departLane="allowed" />
    <vehicle id="right_in_to_left_out_21" type="standard_car" route="right_in_to_left_out" depart="172.0" departLane="allowed" />
    <vehicle id="bottom_in_to_right_out_22" type="standard_car" route="bottom_in_to_right_out" depart="173.0" departLane="allowed" />
    <vehicle id="top_in_to_bottom_out_23" type="standard_car" route="top_in_to_bottom_out" depart="188.0" departLane="allowed" />
    <vehicle id="right_in_to_left_out_24" type="standard_car" route="right_in_to_left_out" depart="190.0" departLane="allowed" />
    <vehicle id="left_in_to_right_out_25" type="standard_car" route="left_in_to_right_out" depart="193.0" departLane="allowed" />
    <vehicle id="left_in_to_right_out_26" type="standard_car" route="left_in_to_right_out" depart="206.0" departLane="allowed" />
    <vehicle id="left_in_to_right_out_27" type="standard_car" route="left_in_to_right_out" depart="207.0" departLane="allowed" />
    <vehicle id="left_in_to_right_out_28" type="standard_car" route="left_in_to_right_out" depart="209.0" departLane="allowed" />
    <vehicle id="right_in_to_left_out_29" type="standard_car" route="right_in_to_left_out" depart="210.0" departLane="allowed" />
    <vehicle id="top_in_to_bottom_out_30" type="standard_car" route="top_in_to_bottom_out" depart="216.0" departLane="allowed" />
    <vehicle id="bottom_in_to_top_out_31" type="standard_car" route="bottom_in_to_top_out" depart="220.0" departLane="allowed" />
    <vehicle id="left_in_to_right_out_32" type="standard_car" route="left_in_to_right_out" depart="221.0" departLane="allowed" />
    <vehicle id="top_in_to_bottom_out_33" type="standard_car" route="top_in_to_bottom_out" depart="228.0" departLane="allowed" />
    <vehicle id="right_in_to_left_out_34" type="standard_car" route="right_in_to_left_out" depart="230.0" departLane="allowed" />
    <vehicle id="bottom_in_to_top_out_35" type="standard_car" route="bottom_in_to_top_out" depart="238.0" departLane="allowed" />
    <vehicle id="top_in_to_left_out_36" type="standard_car" route="top_in_to_left_out" depart="240.0" departLane="allowed" />
    <vehicle id="bottom_in_to_top_out_37" type="standard_car" route="bottom_in_to_top_out" depart="241.0" departLane="allowed" />
    <vehicle id="right_in_to_bottom_out_38" type="standard_car" route="right_in_to_bottom_out" depart="242.0" departLane="allowed" />
    <vehicle id="top_in_to_bottom_out_39" type="standard_car" route="top_in_to_bottom_out" depart="251.0" departLane="allowed" />
    <vehicle id="right_in_to_top_out_40" type="standard_car" route="right_in_to_top_out" depart="256.0" departLane="allowed" />
    <vehicle id="top_in_to_bottom_out_41" type="standard_car" route="top_in_to_bottom_out" depart="260.0" departLane="allowed" />
    <vehicle id="right_in_to_left_out_42" type="standard_car" route="right_in_to_left_out" depart="263.0" departLane="allowed" />
    <vehicle id="bottom_in_to_left_out_43" type="standard_car" route="bottom_in_to_left_out" depart="268.0" departLane="allowed" />
    <vehicle id="left_in_to_right_out_44" type="standard_car" route="left_in_to_right_out" depart="270.0" departLane="allowed" />
    <vehicle id="left_in_to_right_out_45" type="standard_car" route="left_in_to_right_out" depart="281.0" departLane="allowed" />
    <vehicle id="bottom_in_to_top_out_46" type="standard_car" route="bottom_in_to_top_out" depart="284.0" departLane="allowed" />
    <vehicle id="bottom_in_to_right_out_47" type="standard_car" route="bottom_in_to_right_out" depart="286.0" departLane="allowed" />
    <vehicle id="bottom_in_to_top_out_48" type="standard_car" route="bottom_in_to_top_out" depart="290.0" departLane="allowed" />
    <vehicle id="left_in_to_bottom_out_49" type="standard_car" route="left_in_to_bottom_out" depart="290.0" departLane="allowed" />
    <vehicle id="right_in_to_left_out_50" type="standard_car" route="right_in_to_left_out" depart="293.0" departLane="allowed" />
    <vehicle id="top_in_to_left_out_51" type="standard_car" route="top_in_to_left_out" depart="294.0" departLane="allowed" />
    <vehicle id="right_in_to_left_out_52" type="standard_car" route="right_in_to_left_out" depart="295.0" departLane="allowed" />
    <vehicle id="top_in_to_bottom_out_53" type="standard_car" route="top_in_to_bottom_out" depart="297.0" departLane="allowed" />
    <vehicle id="top_in_to_left_out_54" type="standard_car" route="top_in_to_left_out" depart="298.0" departLane="allowed" />
    <vehicle id="bottom_in_to_top_out_55" type="standard_car" route="bottom_in_to_top_out" depart="299.0" departLane="allowed" />
    <vehicle id="left_in_to_bottom_out_56" type="standard_car" route="left_in_to_bottom_out" depart="301.0" departLane="allowed" />
    <vehicle id="bottom_in_to_right_out_57" type="standard_car" route="bottom_in_to_right_out" depart="305.0" departLane="allowed" />
    <vehicle id="bottom_in_to_right_out_58" type="standard_car" route="bottom_in_to_right_out" depart="305.0" departLane="allowed" />
    <vehicle id="right_in_to_left_out_59" type="standard_car" route="right_in_to_left_out" depart="307.0" departLane="allowed" />
    <vehicle id="top_in_to_bottom_out_60" type="standard_car" route="top_in_to_bottom_out" depart="307.0" departLane="allowed" />
    <vehicle id="bottom_in_to_left_out_61" type="standard_car" route="bottom_in_to_left_out" depart="309.0" departLane="allowed" />
    <vehicle id="top_in_to_left_out_62" type="standard_car" route="top_in_to_left_out" depart="309.0" departLane="allowed" />
    <vehicle id="top_in_to_bottom_out_63" type="standard_car" route="top_in_to_bottom_out" depart="312.0" departLane="allowed" />
    <vehicle id="top_in_to_bottom_out_64" type="standard_car" route="top_in_to_bottom_out" depart="313.0" departLane="allowed" />
    <vehicle id="bottom_in_to_right_out_65" type="standard_car" route="bottom_in_to_right_out" depart="314.0" departLane="allowed" />
    <vehicle id="left_in_to_right_out_66" type="standard_car" route="left_in_to_right_out" depart="317.0" departLane="allowed" />
    <vehicle id="bottom_in_to_top_out_67" type="standard_car" route="bottom_in_to_top_out" depart="319.0" departLane="allowed" />
    <vehicle id="right_in_to_left_out_68" type="standard_car" route="right_in_to_left_out" depart="321.0" departLane="allowed" />
    <vehicle id="bottom_in_to_right_out_69" type="standard_car" route="bottom_in_to_right_out" depart="321.0" departLane="allowed" />
    <vehicle id="left_in_to_bottom_out_70" type="standard_car" route="left_in_to_bottom_out" depart="321.0" departLane="allowed" />
    <vehicle id="top_in_to_left_out_71" type="standard_car" route="top_in_to_left_out" depart="323.0" departLane="allowed" />
    <vehicle id="left_in_to_right_out_72" type="standard_car" route="left_in_to_right_out" depart="325.0" departLane="allowed" />
    <vehicle id="right_in_to_left_out_73" type="standard_car" route="right_in_to_left_out" depart="326.0" departLane="allowed" />
    <vehicle id="left_in_to_right_out_74" type="standard_car" route="left_in_to_right_out" depart="336.0" departLane="allowed" />
    <vehicle id="right_in_to_left_out_75" type="standard_car" route="right_in_to_left_out" depart="338.0" departLane="allowed" />
    <vehicle id="top_in_to_bottom_out_76" type="standard_car" route="top_in_to_bottom_out" depart="340.0" departLane="allowed" />
    <vehicle id="top_in_to_bottom_out_77" type="standard_car" route="top_in_to_bottom_out" depart="345.0" departLane="allowed" />
    <vehicle id="right_in_to_left_out_78" type="standard_car" route="right_in_to_left_out" depart="348.0" departLane="allowed" />
    <vehicle id="right_in_to_left_out_79" type="standard_car" route="right_in_to_left_out" depart="349.0" departLane="allowed" />
    <vehicle id="top_in_to_bottom_out_80" type="standard_car" route="top_in_to_bottom_out" depart="350.0" departLane="allowed" />
    <vehicle id="left_in_to_right_out_81" type="standard_car" route="left_in_to_right_out" depart="354.0" departLane="allowed" />
    <vehicle id="top_in_to_bottom_out_82" type="standard_car" route="top_in_to_bottom_out" depart="358.0" departLane="allowed" />
    <vehicle id="top_in_to_bottom_out_83" type="standard_car" route="top_in_to_bottom_out" depart="362.0" departLane="allowed" />
    <vehicle id="top_in_to_left_out_84" type="standard_car" route="top_in_to_left_out" depart="367.0" departLane="allowed" />
    <vehicle id="right_in_to_left_out_85" type="standard_car" route="right_in_to_left_out" depart="368.0" departLane="allowed" />
    <vehicle id="left_in_to_right_out_86" type="standard_car" route="left_in_to_right_out" depart="370.0" departLane="allowed" />
    <vehicle id="right_in_to_left_out_87" type="standard_car" route="right_in_to_left_out" depart="377.0" departLane="allowed" />
    <vehicle id="bottom_in_to_right_out_88" type="standard_car" route="bottom_in_to_right_out" depart="381.0" departLane="allowed" />
    <vehicle id="right_in_to_bottom_out_89" type="standard_car" route="right_in_to_bottom_out" depart="382.0" departLane="allowed" />
    <vehicle id="top_in_to_bottom_out_90" type="standard_car" route="top_in_to_bottom_out" depart="383.0" departLane="allowed" />
    <vehicle id="bottom_in_to_top_out_91" type="standard_car" route="bottom_in_to_top_out" depart="384.0" departLane="allowed" />
    <vehicle id="right_in_to_left_out_92" type="standard_car" route="right_in_to_left_out" depart="384.0" departLane="allowed" />
    <vehicle id="bottom_in_to_top_out_93" type="standard_car" route="bottom_in_to_top_out" depart="384.0" departLane="allowed" />
    <vehicle id="top_in_to_bottom_out_94" type="standard_car" route="top_in_to_bottom_out" depart="385.0" departLane="allowed" />
    <vehicle id="top_in_to_bottom_out_95" type="standard_car" route="top_in_to_bottom_out" depart="385.0" departLane="allowed" />
    <vehicle id="right_in_to_left_out_96" type="standard_car" route="right_in_to_left_out" depart="389.0" departLane="allowed" />
    <vehicle id="bottom_in_to_top_out_97" type="standard_car" route="bottom_in_to_top_out" depart="389.0" departLane="allowed" />
    <vehicle id="left_in_to_right_out_98" type="standard_car" route="left_in_to_right_out" depart="390.0" departLane="allowed" />
    <vehicle id="right_in_to_bottom_out_99" type="standard_car" route="right_in_to_bottom_out" depart="390.0" departLane="allowed" />
    <vehicle id="right_in_to_left_out_100" type="standard_car" route="right_in_to_left_out" depart="390.0" departLane="allowed" />
    <vehicle id="top_in_to_bottom_out_101" type="standard_car" route="top_in_to_bottom_out" depart="394.0" departLane="allowed" />
    <vehicle id="left_in_to_right_out_102" type="standard_car" route="left_in_to_right_out" depart="394.0" departLane="allowed" />
    <vehicle id="top_in_to_right_out_103" type="standard_car" route="top_in_to_right_out" depart="396.0" departLane="allowed" />
    <vehicle id="right_in_to_left_out_104" type="standard_car" route="right_in_to_left_out" depart="399.0" departLane="allowed" />
    <vehicle id="left_in_to_top_out_105" type="standard_car" route="left_in_to_top_out" depart="401.0" departLane="allowed" />
    <vehicle id="left_in_to_right_out_106" type="standard_car" route="left_in_to_right_out" depart="404.0" departLane="allowed" />
    <vehicle id="left_in_to_top_out_107" type="standard_car" route="left_in_to_top_out" depart="404.0" departLane="allowed" />
    <vehicle id="top_in_to_bottom_out_108" type="standard_car" route="top_in_to_bottom_out" depart="405.0" departLane="allowed" />
    <vehicle id="top_in_to_bottom_out_109" type="standard_car" route="top_in_to_bottom_out" depart="409.0" departLane="allowed" />
    <vehicle id="right_in_to_left_out_110" type="standard_car" route="right_in_to_left_out" depart="410.0" departLane="allowed" />
    <vehicle id="top_in_to_right_out_111" type="standard_car" route="top_in_to_right_out" depart="411.0" departLane="allowed" />
    <vehicle id="bottom_in_to_right_out_112" type="standard_car" route="bottom_in_to_right_out" depart="413.0" departLane="allowed" />
    <vehicle id="top_in_to_bottom_out_113" type="standard_car" route="top_in_to_bottom_out" depart="414.0" departLane="allowed" />
    <vehicle id="right_in_to_left_out_114" type="standard_car" route="right_in_to_left_out" depart="420.0" departLane="allowed" />
    <vehicle id="top_in_to_bottom_out_115" type="standard_car" route="top_in_to_bottom_out" depart="421.0" departLane="allowed" />
    <vehicle id="bottom_in_to_left_out_116" type="standard_car" route="bottom_in_to_left_out" depart="421.0" departLane="allowed" />
    <vehicle id="left_in_to_top_out_117" type="standard_car" route="left_in_to_top_out" depart="421.0" departLane="allowed" />
    <vehicle id="top_in_to_bottom_out_118" type="standard_car" route="top_in_to_bottom_out" depart="421.0" departLane="allowed" />
    <vehicle id="right_in_to_bottom_out_119" type="standard_car" route="right_in_to_bottom_out" depart="424.0" departLane="allowed" />
    <vehicle id="top_in_to_right_out_120" type="standard_car" route="top_in_to_right_out" depart="424.0" departLane="allowed" />
    <vehicle id="right_in_to_bottom_out_121" type="standard_car" route="right_in_to_bottom_out" depart="424.0" departLane="allowed" />
    <vehicle id="left_in_to_right_out_122" type="standard_car" route="left_in_to_right_out" depart="424.0" departLane="allowed" />
    <vehicle id="top_in_to_right_out_123" type="standard_car" route="top_in_to_right_out" depart="424.0" departLane="allowed" />
    <vehicle id="right_in_to_bottom_out_124" type="standard_car" route="right_in_to_bottom_out" depart="426.0" departLane="allowed" />
    <vehicle id="bottom_in_to_right_out_125" type="standard_car" route="bottom_in_to_right_out" depart="427.0" departLane="allowed" />
    <vehicle id="right_in_to_bottom_out_126" type="standard_car" route="right_in_to_bottom_out" depart="429.0" departLane="allowed" />
    <vehicle id="right_in_to_left_out_127" type="standard_car" route="right_in_to_left_out" depart="429.0" departLane="allowed" />
    <vehicle id="bottom_in_to_top_out_128" type="standard_car" route="bottom_in_to_top_out" depart="436.0" departLane="allowed" />
    <vehicle id="bottom_in_to_top_out_129" type="standard_car" route="bottom_in_to_top_out" depart="446.0" departLane="allowed" />
    <vehicle id="right_in_to_left_out_130" type="standard_car" route="right_in_to_left_out" depart="446.0" departLane="allowed" />
    <vehicle id="bottom_in_to_top_out_131" type="standard_car" route="bottom_in_to_top_out" depart="450.0" departLane="allowed" />
    <vehicle id="right_in_to_left_out_132" type="standard_car" route="right_in_to_left_out" depart="450.0" departLane="allowed" />
    <vehicle id="left_in_to_right_out_133" type="standard_car" route="left_in_to_right_out" depart="451.0" departLane="allowed" />
    <vehicle id="right_in_to_bottom_out_134" type="standard_car" route="right_in_to_bottom_out" depart="451.0" departLane="allowed" />
    <vehicle id="left_in_to_right_out_135" type="standard_car" route="left_in_to_right_out" depart="452.0" departLane="allowed" />
    <vehicle id="top_in_to_bottom_out_136" type="standard_car" route="top_in_to_bottom_out" depart="452.0" departLane="allowed" />
    <vehicle id="right_in_to_left_out_137" type="standard_car" route="right_in_to_left_out" depart="454.0" departLane="allowed" />
    <vehicle id="right_in_to_bottom_out_138" type="standard_car" route="right_in_to_bottom_out" depart="454.0" departLane="allowed" />
    <vehicle id="top_in_to_bottom_out_139" type="standard_car" route="top_in_to_bottom_out" depart="458.0" departLane="allowed" />
    <vehicle id="top_in_to_bottom_out_140" type="standard_car" route="top_in_to_bottom_out" depart="460.0" departLane="allowed" />
    <vehicle id="bottom_in_to_right_out_141" type="standard_car" route="bottom_in_to_right_out" depart="463.0" departLane="allowed" />
    <vehicle id="right_in_to_left_out_142" type="standard_car" route="right_in_to_left_out" depart="464.0" departLane="allowed" />
    <vehicle id="left_in_to_top_out_143" type="standard_car" route="left_in_to_top_out" depart="467.0" departLane="allowed" />
    <vehicle id="bottom_in_to_top_out_144" type="standard_car" route="bottom_in_to_top_out" depart="467.0" departLane="allowed" />
    <vehicle id="bottom_in_to_left_out_145" type="standard_car" route="bottom_in_to_left_out" depart="469.0" departLane="allowed" />
    <vehicle id="top_in_to_bottom_out_146" type="standard_car" route="top_in_to_bottom_out" depart="472.0" departLane="allowed" />
    <vehicle id="right_in_to_left_out_147" type="standard_car" route="right_in_to_left_out" depart="475.0" departLane="allowed" />
    <vehicle id="left_in_to_bottom_out_148" type="standard_car" route="left_in_to_bottom_out" depart="478.0" departLane="allowed" />
    <vehicle id="left_in_to_right_out_149" type="standard_car" route="left_in_to_right_out" depart="480.0" departLane="allowed" />
    <vehicle id="right_in_to_left_out_150" type="standard_car" route="right_in_to_left_out" depart="480.0" departLane="allowed" />
    <vehicle id="top_in_to_bottom_out_151" type="standard_car" route="top_in_to_bottom_out" depart="480.0" departLane="allowed" />
    <vehicle id="top_in_to_bottom_out_152" type="standard_car" route="top_in_to_bottom_out" depart="481.0" departLane="allowed" />
    <vehicle id="right_in_to_left_out_153" type="standard_car" route="right_in_to_left_out" depart="483.0" departLane="allowed" />
    <vehicle id="bottom_in_to_top_out_154" type="standard_car" route="bottom_in_to_top_out" depart="485.0" departLane="allowed" />
    <vehicle id="left_in_to_right_out_155" type="standard_car" route="left_in_to_right_out" depart="488.0" departLane="allowed" />
    <vehicle id="top_in_to_bottom_out_156" type="standard_car" route="top_in_to_bottom_out" depart="490.0" departLane="allowed" />
    <vehicle id="bottom_in_to_top_out_157" type="standard_car" route="bottom_in_to_top_out" depart="495.0" departLane="allowed" />
    <vehicle id="bottom_in_to_top_out_158" type="standard_car" route="bottom_in_to_top_out" depart="499.0" departLane="allowed" />
    <vehicle id="bottom_in_to_top_out_159" type="standard_car" route="bottom_in_to_top_out" depart="500.0" departLane="allowed" />
    <vehicle id="bottom_in_to_top_out_160" type="standard_car" route="bottom_in_to_top_out" depart="500.0" departLane="allowed" />
    <vehicle id="right_in_to_left_out_161" type="standard_car" route="right_in_to_left_out" depart="501.0" departLane="allowed" />
    <vehicle id="bottom_in_to_top_out_162" type="standard_car" route="bottom_in_to_top_out" depart="501.0" departLane="allowed" />
    <vehicle id="bottom_in_to_top_out_163" type="standard_car" route="bottom_in_to_top_out" depart="502.0" departLane="allowed" />
    <vehicle id="top_in_to_bottom_out_164" type="standard_car" route="top_in_to_bottom_out" depart="502.0" departLane="allowed" />
    <vehicle id="right_in_to_left_out_165" type="standard_car" route="right_in_to_left_out" depart="503.0" departLane="allowed" />
    <vehicle id="top_in_to_bottom_out_166" type="standard_car" route="top_in_to_bottom_out" depart="505.0" departLane="allowed" />
    <vehicle id="bottom_in_to_left_out_167" type="standard_car" route="bottom_in_to_left_out" depart="505.0" departLane="allowed" />
    <vehicle id="right_in_to_left_out_168" type="standard_car" route="right_in_to_left_out" depart="505.0" departLane="allowed" />
    <vehicle id="bottom_in_to_left_out_169" type="standard_car" route="bottom_in_to_left_out" depart="506.0" departLane="allowed" />
    <vehicle id="left_in_to_right_out_170" type="standard_car" route="left_in_to_right_out" depart="509.0" departLane="allowed" />
    <vehicle id="bottom_in_to_right_out_171" type="standard_car" route="bottom_in_to_right_out" depart="511.0" departLane="allowed" />
    <vehicle id="bottom_in_to_top_out_172" type="standard_car" route="bottom_in_to_top_out" depart="516.0" departLane="allowed" />
    <vehicle id="left_in_to_right_out_173" type="standard_car" route="left_in_to_right_out" depart="521.0" departLane="allowed" />
    <vehicle id="bottom_in_to_right_out_174" type="standard_car" route="bottom_in_to_right_out" depart="521.0" departLane="allowed" />
    <vehicle id="top_in_to_bottom_out_175" type="standard_car" route="top_in_to_bottom_out" depart="523.0" departLane="allowed" />
    <vehicle id="bottom_in_to_left_out_176" type="standard_car" route="bottom_in_to_left_out" depart="526.0" departLane="allowed" />
    <vehicle id="right_in_to_top_out_177" type="standard_car" route="right_in_to_top_out" depart="526.0" departLane="allowed" />
    <vehicle id="top_in_to_bottom_out_178" type="standard_car" route="top_in_to_bottom_out" depart="527.0" departLane="allowed" />
    <vehicle id="bottom_in_to_top_out_179" type="standard_car" route="bottom_in_to_top_out" depart="529.0" departLane="allowed" />
    <vehicle id="top_in_to_bottom_out_180" type="standard_car" route="top_in_to_bottom_out" depart="530.0" departLane="allowed" />
    <vehicle id="right_in_to_left_out_181" type="standard_car" route="right_in_to_left_out" depart="532.0" departLane="allowed" />
    <vehicle id="left_in_to_right_out_182" type="standard_car" route="left_in_to_right_out" depart="534.0" departLane="allowed" />
    <vehicle id="top_in_to_bottom_out_183" type="standard_car" route="top_in_to_bottom_out" depart="534.0" departLane="allowed" />
    <vehicle id="right_in_to_bottom_out_184" type="standard_car" route="right_in_to_bottom_out" depart="536.0" departLane="allowed" />
    <vehicle id="top_in_to_bottom_out_185" type="standard_car" route="top_in_to_bottom_out" depart="540.0" departLane="allowed" />
    <vehicle id="right_in_to_left_out_186" type="standard_car" route="right_in_to_left_out" depart="540.0" departLane="allowed" />
    <vehicle id="right_in_to_left_out_187" type="standard_car" route="right_in_to_left_out" depart="540.0" departLane="allowed" />
    <vehicle id="top_in_to_bottom_out_188" type="standard_car" route="top_in_to_bottom_out" depart="543.0" departLane="allowed" />
    <vehicle id="bottom_in_to_top_out_189" type="standard_car" route="bottom_in_to_top_out" depart="544.0" departLane="allowed" />
    <vehicle id="top_in_to_left_out_190" type="standard_car" route="top_in_to_left_out" depart="544.0" departLane="allowed" />
    <vehicle id="right_in_to_top_out_191" type="standard_car" route="right_in_to_top_out" depart="545.0" departLane="allowed" />
    <vehicle id="left_in_to_right_out_192" type="standard_car" route="left_in_to_right_out" depart="546.0" departLane="allowed" />
    <vehicle id="left_in_to_right_out_193" type="standard_car" route="left_in_to_right_out" depart="551.0" departLane="allowed" />
    <vehicle id="right_in_to_top_out_194" type="standard_car" route="right_in_to_top_out" depart="552.0" departLane="allowed" />
    <vehicle id="bottom_in_to_top_out_195" type="standard_car" route="bottom_in_to_top_out" depart="561.0" departLane="allowed" />
    <vehicle id="left_in_to_right_out_196" type="standard_car" route="left_in_to_right_out" depart="562.0" departLane="allowed" />
    <vehicle id="left_in_to_right_out_197" type="standard_car" route="left_in_to_right_out" depart="562.0" departLane="allowed" />
    <vehicle id="right_in_to_left_out_198" type="standard_car" route="right_in_to_left_out" depart="566.0" departLane="allowed" />
    <vehicle id="top_in_to_right_out_199" type="standard_car" route="top_in_to_right_out" depart="567.0" departLane="allowed" />
    <vehicle id="left_in_to_top_out_200" type="standard_car" route="left_in_to_top_out" depart="575.0" departLane="allowed" />
    <vehicle id="right_in_to_bottom_out_201" type="standard_car" route="right_in_to_bottom_out" depart="579.0" departLane="allowed" />
    <vehicle id="right_in_to_top_out_202" type="standard_car" route="right_in_to_top_out" depart="580.0" departLane="allowed" />
    <vehicle id="right_in_to_left_out_203" type="standard_car" route="right_in_to_left_out" depart="581.0" departLane="allowed" />
    <vehicle id="right_in_to_left_out_204" type="standard_car" route="right_in_to_left_out" depart="582.0" departLane="allowed" />
    <vehicle id="bottom_in_to_top_out_205" type="standard_car" route="bottom_in_to_top_out" depart="582.0" departLane="allowed" />
    <vehicle id="left_in_to_top_out_206" type="standard_car" route="left_in_to_top_out" depart="583.0" departLane="allowed" />
    <vehicle id="right_in_to_left_out_207" type="standard_car" route="right_in_to_left_out" depart="585.0" departLane="allowed" />
    <vehicle id="top_in_to_bottom_out_208" type="standard_car" route="top_in_to_bottom_out" depart="586.0" departLane="allowed" />
    <vehicle id="right_in_to_left_out_209" type="standard_car" route="right_in_to_left_out" depart="588.0" departLane="allowed" />
    <vehicle id="top_in_to_left_out_210" type="standard_car" route="top_in_to_left_out" depart="589.0" departLane="allowed" />
    <vehicle id="bottom_in_to_left_out_211" type="standard_car" route="bottom_in_to_left_out" depart="591.0" departLane="allowed" />
    <vehicle id="right_in_to_bottom_out_212" type="standard_car" route="right_in_to_bottom_out" depart="591.0" departLane="allowed" />
    <vehicle id="top_in_to_bottom_out_213" type="standard_car" route="top_in_to_bottom_out" depart="593.0" departLane="allowed" />
    <vehicle id="left_in_to_right_out_214" type="standard_car" route="left_in_to_right_out" depart="593.0" departLane="allowed" />
    <vehicle id="right_in_to_bottom_out_215" type="standard_car" route="right_in_to_bottom_out" depart="593.0" departLane="allowed" />
    <vehicle id="top_in_to_right_out_216" type="standard_car" route="top_in_to_right_out" depart="595.0" departLane="allowed" />
    <vehicle id="left_in_to_right_out_217" type="standard_car" route="left_in_to_right_out" depart="598.0" departLane="allowed" />
    <vehicle id="top_in_to_bottom_out_218" type="standard_car" route="top_in_to_bottom_out" depart="600.0" departLane="allowed" />
    <vehicle id="left_in_to_right_out_219" type="standard_car" route="left_in_to_right_out" depart="600.0" departLane="allowed" />
    <vehicle id="right_in_to_left_out_220" type="standard_car" route="right_in_to_left_out" depart="603.0" departLane="allowed" />
    <vehicle id="top_in_to_bottom_out_221" type="standard_car" route="top_in_to_bottom_out" depart="603.0" departLane="allowed" />