<routes>
    <vType accel="0.8" id="standard_car" decel="4.5" length="5.0" minGap="2.5" maxSpeed="16.67" sigma="0.5" />
    
    <route id="top_in_to_right_out" edges="top_in right_out"/>
    <route id="top_in_to_bottom_out" edges="top_in bottom_out"/>
    <route id="top_in_to_left_out" edges="top_in left_out"/>
    <route id="right_in_to_top_out" edges="right_in top_out"/>
    <route id="right_in_to_bottom_out" edges="right_in bottom_out"/>
    <route id="right_in_to_left_out" edges="right_in left_out"/>
    <route id="bottom_in_to_top_out" edges="bottom_in top_out"/>
    <route id="bottom_in_to_right_out" edges="bottom_in right_out"/>
    <route id="bottom_in_to_left_out" edges="bottom_in left_out"/>
    <route id="left_in_to_top_out" edges="left_in top_out"/>
    <route id="left_in_to_right_out" edges="left_in right_out"/>
    <route id="left_in_to_bottom_out" edges="left_in bottom_out"/>
    <vehicle id="right_in_to_left_out_0" type="standard_car" route="right_in_to_left_out" depart="1.0" departLane="random" />
    <vehicles id="top_in_to_bottom_out_1" type="standard_car" route="top_in_to_bottom_out" depart="2.0" departLane="random" />
    <vehicle id="right_in_to_top_out_2" type="standard_car" route="right_in_to_top_out" depart="2.0" departLane="random" />
    <vehicles id="left_in_to_right_out_3" type="standard_car" route="left_in_to_right_out" depart="2.0" departLane="random" />
    <vehicles id="bottom_in_to_right_out_4" type="standard_car" route="bottom_in_to_right_out" depart="2.0" departLane="random" />
    <vehicles id="right_in_to_bottom_out_5" type="standard_car" route="right_in_to_bottom_out" depart="2.0" departLane="random" />
    <vehicles id="top_in_to_bottom_out_6" type="standard_car" route="top_in_to_bottom_out" depart="2.0" departLane="random" />
    <vehicle id="top_in_to_left_out_7" type="standard_car" route="top_in_to_left_out" depart="3.0" departLane="random" />
    <vehicle id="bottom_in_to_left_out_8" type="standard_car" route="bottom_in_to_left_out" depart="3.0" departLane="random" />
    <vehicle id="left_in_to_top_out_9" type="standard_car" route="left_in_to_top_out" depart="3.0" departLane="random" />
    <vehicles id="bottom_in_to_right_out_10" type="standard_car" route="bottom_in_to_right_out" depart="3.0" departLane="random" />
    <vehicle id="left_in_to_top_out_11" type="standard_car" route="left_in_to_top_out" depart="3.0" departLane="random" />
    <vehicles id="bottom_in_to_right_out_12" type="standard_car" route="bottom_in_to_right_out" depart="4.0" departLane="random" />
    <vehicle id="bottom_in_to_left_out_13" type="standard_car" route="bottom_in_to_left_out" depart="4.0" departLane="random" />
    <vehicles id="top_in_to_bottom_out_14" type="standard_car" route="top_in_to_bottom_out" depart="4.0" departLane="random" />
    <vehicles id="left_in_to_right_out_15" type="standard_car" route="left_in_to_right_out" depart="4.0" departLane="random" />
    <vehicle id="top_in_to_left_out_16" type="standard_car" route="top_in_to_left_out" depart="4.0" departLane="random" />
    <vehicles id="right_in_to_bottom_out_17" type="standard_car" route="right_in_to_bottom_out" depart="4.0" departLane="random" />
    <vehicles id="top_in_to_bottom_out_18" type="standard_car" route="top_in_to_bottom_out" depart="4.0" departLane="random" />
    <vehicles id="left_in_to_right_out_19" type="standard_car" route="left_in_to_right_out" depart="5.0" departLane="random" />
    <vehicle id="left_in_to_bottom_out_20" type="standard_car" route="left_in_to_bottom_out" depart="5.0" departLane="random" />
    <vehicles id="right_in_to_bottom_out_21" type="standard_car" route="right_in_to_bottom_out" depart="5.0" departLane="random" />
    <vehicles id="right_in_to_bottom_out_22" type="standard_car" route="right_in_to_bottom_out" depart="5.0" departLane="random" />
    <vehicle id="bottom_in_to_left_out_23" type="standard_car" route="bottom_in_to_left_out" depart="5.0" departLane="random" />
    <vehicle id="right_in_to_top_out_24" type="standard_car" route="right_in_to_top_out" depart="6.0" departLane="random" />
    <vehicles id="top_in_to_bottom_out_25" type="standard_car" route="top_in_to_bottom_out" depart="6.0" departLane="random" />
    <vehicles id="bottom_in_to_right_out_26" type="standard_car" route="bottom_in_to_right_out" depart="6.0" departLane="random" />
    <vehicle id="top_in_to_left_out_27" type="standard_car" route="top_in_to_left_out" depart="6.0" departLane="random" />
    <vehicle id="left_in_to_top_out_28" type="standard_car" route="left_in_to_top_out" depart="6.0" departLane="random" />
    <vehicles id="bottom_in_to_right_out_29" type="standard_car" route="bottom_in_to_right_out" depart="6.0" departLane="random" />
    <vehicle id="left_in_to_top_out_30" type="standard_car" route="left_in_to_top_out" depart="6.0" departLane="random" />
    <vehicle id="left_in_to_top_out_31" type="standard_car" route="left_in_to_top_out" depart="6.0" departLane="random" />
    <vehicle id="top_in_to_left_out_32" type="standard_car" route="top_in_to_left_out" depart="7.0" departLane="random" />
    <vehicles id="bottom_in_to_right_out_33" type="standard_car" route="bottom_in_to_right_out" depart="7.0" departLane="random" />
    <vehicles id="right_in_to_bottom_out_34" type="standard_car" route="right_in_to_bottom_out" depart="7.0" departLane="random" />
    <vehicles id="bottom_in_to_right_out_35" type="standard_car" route="bottom_in_to_right_out" depart="7.0" departLane="random" />
    <vehicles id="right_in_to_bottom_out_36" type="standard_car" route="right_in_to_bottom_out" depart="7.0" departLane="random" />
    <vehicle id="right_in_to_top_out_37" type="standard_car" route="right_in_to_top_out" depart="7.0" departLane="random" />
    <vehicle id="bottom_in_to_left_out_38" type="standard_car" route="bottom_in_to_left_out" depart="7.0" departLane="random" />
    <vehicles id="left_in_to_right_out_39" type="standard_car" route="left_in_to_right_out" depart="7.0" departLane="random" />
    <vehicles id="top_in_to_bottom_out_40" type="standard_car" route="top_in_to_bottom_out" depart="7.0" departLane="random" />
    <vehicles id="bottom_in_to_right_out_41" type="standard_car" route="bottom_in_to_right_out" depart="7.0" departLane="random" />
    <vehicles id="bottom_in_to_right_out_42" type="standard_car" route="bottom_in_to_right_out" depart="7.0" departLane="random" />
    <vehicles id="bottom_in_to_right_out_43" type="standard_car" route="bottom_in_to_right_out" depart="8.0" departLane="random" />
    <vehicles id="right_in_to_bottom_out_44" type="standard_car" route="right_in_to_bottom_out" depart="8.0" departLane="random" />
    <vehicles id="bottom_in_to_right_out_45" type="standard_car" route="bottom_in_to_right_out" depart="8.0" departLane="random" />
    <vehicles id="left_in_to_right_out_46" type="standard_car" route="left_in_to_right_out" depart="8.0" departLane="random" />
    <vehicles id="bottom_in_to_right_out_47" type="standard_car" route="bottom_in_to_right_out" depart="8.0" departLane="random" />
    <vehicles id="top_in_to_bottom_out_48" type="standard_car" route="top_in_to_bottom_out" depart="8.0" departLane="random" />
    <vehicles id="right_in_to_bottom_out_49" type="standard_car" route="right_in_to_bottom_out" depart="8.0" departLane="random" />
    <vehicles id="right_in_to_bottom_out_50" type="standard_car" route="right_in_to_bottom_out" depart="8.0" departLane="random" />
    <vehicles id="top_in_to_bottom_out_51" type="standard_car" route="top_in_to_bottom_out" depart="8.0" departLane="random" />
    <vehicle id="left_in_to_top_out_52" type="standard_car" route="left_in_to_top_out" depart="8.0" departLane="random" />
    <vehicle id="top_in_to_left_out_53" type="standard_car" route="top_in_to_left_out" depart="8.0" departLane="random" />
    <vehicles id="bottom_in_to_right_out_54" type="standard_car" route="bottom_in_to_right_out" depart="9.0" departLane="random" />
    <vehicles id="top_in_to_bottom_out_55" type="standard_car" route="top_in_to_bottom_out" depart="9.0" departLane="random" />
    <vehicles id="bottom_in_to_right_out_56" type="standard_car" route="bottom_in_to_right_out" depart="9.0" departLane="random" />
    <vehicle id="left_in_to_bottom_out_57" type="standard_car" route="left_in_to_bottom_out" depart="9.0" departLane="random" />
    <vehicle id="left_in_to_bottom_out_58" type="standard_car" route="left_in_to_bottom_out" depart="9.0" departLane="random" />
    <vehicles id="bottom_in_to_right_out_59" type="standard_car" route="bottom_in_to_right_out" depart="9.0" departLane="random" />
    <vehicles id="bottom_in_to_right_out_60" type="standard_car" route="bottom_in_to_right_out" depart="9.0" departLane="random" />
    <vehicles id="left_in_to_right_out_61" type="standard_car" route="left_in_to_right_out" depart="9.0" departLane="random" />
    <vehicle id="left_in_to_top_out_62" type="standard_car" route="left_in_to_top_out" depart="9.0" departLane="random" />
    <vehicles id="right_in_to_bottom_out_63" type="standard_car" route="right_in_to_bottom_out" depart="9.0" departLane="random" />
    <vehicles id="left_in_to_right_out_64" type="standard_car" route="left_in_to_right_out" depart="9.0" departLane="random" />
    <vehicles id="right_in_to_bottom_out_65" type="standard_car" route="right_in_to_bottom_out" depart="9.0" departLane="random" />
    <vehicle id="right_in_to_top_out_66" type="standard_car" route="right_in_to_top_out" depart="9.0" departLane="random" />
    <vehicle id="right_in_to_left_out_67" type="standard_car" route="right_in_to_left_out" depart="9.0" departLane="random" />
    <vehicle id="top_in_to_left_out_68" type="standard_car" route="top_in_to_left_out" depart="9.0" departLane="random" />
    <vehicles id="left_in_to_right_out_69" type="standard_car" route="left_in_to_right_out" depart="9.0" departLane="random" />
    <vehicles id="left_in_to_right_out_70" type="standard_car" route="left_in_to_right_out" depart="10.0" departLane="random" />
    <vehicle id="right_in_to_top_out_71" type="standard_car" route="right_in_to_top_out" depart="10.0" departLane="random" />
    <vehicles id="top_in_to_bottom_out_72" type="standard_car" route="top_in_to_bottom_out" depart="10.0" departLane="random" />
    <vehicle id="left_in_to_bottom_out_73" type="standard_car" route="left_in_to_bottom_out" depart="10.0" departLane="random" />
    <vehicles id="left_in_to_right_out_74" type="standard_car" route="left_in_to_right_out" depart="10.0" departLane="random" />
    <vehicle id="top_in_to_right_out_75" type="standard_car" route="top_in_to_right_out" depart="10.0" departLane="random" />
    <vehicles id="bottom_in_to_right_out_76" type="standard_car" route="bottom_in_to_right_out" depart="10.0" departLane="random" />
    <vehicle id="left_in_to_top_out_77" type="standard_car" route="left_in_to_top_out" depart="10.0" departLane="random" />
    <vehicles id="right_in_to_bottom_out_78" type="standard_car" route="right_in_to_bottom_out" depart="10.0" departLane="random" />
    <vehicles id="right_in_to_bottom_out_79" type="standard_car" route="right_in_to_bottom_out" depart="10.0" departLane="random" />
    <vehicle id="top_in_to_right_out_80" type="standard_car" route="top_in_to_right_out" depart="10.0" departLane="random" />
    <vehicle id="right_in_to_left_out_81" type="standard_car" route="right_in_to_left_out" depart="10.0" departLane="random" />
    <vehicles id="bottom_in_to_right_out_82" type="standard_car" route="bottom_in_to_right_out" depart="10.0" departLane="random" />
    <vehicles id="top_in_to_bottom_out_83" type="standard_car" route="top_in_to_bottom_out" depart="10.0" departLane="random" />
    <vehicle id="right_in_to_top_out_84" type="standard_car" route="right_in_to_top_out" depart="10.0" departLane="random" />
    <vehicles id="bottom_in_to_right_out_85" type="standard_car" route="bottom_in_to_right_out" depart="10.0" departLane="random" />
    <vehicle id="left_in_to_bottom_out_86" type="standard_car" route="left_in_to_bottom_out" depart="11.0" departLane="random" />
    <vehicles id="top_in_to_bottom_out_87" type="standard_car" route="top_in_to_bottom_out" depart="11.0" departLane="random" />
    <vehicles id="top_in_to_bottom_out_88" type="standard_car" route="top_in_to_bottom_out" depart="11.0" departLane="random" />
    <vehicles id="right_in_to_bottom_out_89" type="standard_car" route="right_in_to_bottom_out" depart="11.0" departLane="random" />
    <vehicles id="right_in_to_bottom_out_90" type="standard_car" route="right_in_to_bottom_out" depart="11.0" departLane="random" />
    <vehicles id="left_in_to_right_out_91" type="standard_car" route="left_in_to_right_out" depart="11.0" departLane="random" />
    <vehicle id="top_in_to_right_out_92" type="standard_car" route="top_in_to_right_out" depart="11.0" departLane="random" />
    <vehicle id="left_in_to_top_out_93" type="standard_car" route="left_in_to_top_out" depart="11.0" departLane="random" />
    <vehicles id="right_in_to_bottom_out_94" type="standard_car" route="right_in_to_bottom_out" depart="11.0" departLane="random" />
    <vehicles id="right_in_to_bottom_out_95" type="standard_car" route="right_in_to_bottom_out" depart="11.0" departLane="random" />
    <vehicles id="right_in_to_bottom_out_96" type="standard_car" route="right_in_to_bottom_out" depart="11.0" departLane="random" />
    <vehicle id="left_in_to_bottom_out_97" type="standard_car" route="left_in_to_bottom_out" depart="11.0" departLane="random" />
    <vehicle id="left_in_to_bottom_out_98" type="standard_car" route="left_in_to_bottom_out" depart="11.0" departLane="random" />
    <vehicle id="top_in_to_right_out_99" type="standard_car" route="top_in_to_right_out" depart="11.0" departLane="random" />
    <vehicle id="top_in_to_left_out_100" type="standard_car" route="top_in_to_left_out" depart="11.0" departLane="random" />
    <vehicles id="top_in_to_bottom_out_101" type="standard_car" route="top_in_to_bottom_out" depart="11.0" departLane="random" />
    <vehicles id="right_in_to_bottom_out_102" type="standard_car" route="right_in_to_bottom_out" depart="11.0" departLane="random" />
    <vehicle id="right_in_to_top_out_103" type="standard_car" route="right_in_to_top_out" depart="11.0" departLane="random" />
    <vehicles id="left_in_to_right_out_104" type="standard_car" route="left_in_to_right_out" depart="11.0" departLane="random" />
    <vehicle id="left_in_to_bottom_out_105" type="standard_car" route="left_in_to_bottom_out" depart="11.0" departLane="random" />
    <vehicle id="left_in_to_top_out_106" type="standard_car" route="left_in_to_top_out" depart="11.0" departLane="random" />
    <vehicles id="right_in_to_bottom_out_107" type="standard_car" route="right_in_to_bottom_out" depart="11.0" departLane="random" />
    <vehicles id="top_in_to_bottom_out_108" type="standard_car" route="top_in_to_bottom_out" depart="11.0" departLane="random" />
    <vehicles id="right_in_to_bottom_out_109" type="standard_car" route="right_in_to_bottom_out" depart="11.0" departLane="random" />
    <vehicle id="left_in_to_top_out_110" type="standard_car" route="left_in_to_top_out" depart="12.0" departLane="random" />
    <vehicle id="top_in_to_left_out_111" type="standard_car" route="top_in_to_left_out" depart="12.0" departLane="random" />
    <vehicles id="top_in_to_bottom_out_112" type="standard_car" route="top_in_to_bottom_out" depart="12.0" departLane="random" />
    <vehicles id="left_in_to_right_out_113" type="standard_car" route="left_in_to_right_out" depart="12.0" departLane="random" />
    <vehicles id="right_in_to_bottom_out_114" type="standard_car" route="right_in_to_bottom_out" depart="12.0" departLane="random" />
    <vehicles id="right_in_to_bottom_out_115" type="standard_car" route="right_in_to_bottom_out" depart="12.0" departLane="random" />
    <vehicles id="right_in_to_bottom_out_116" type="standard_car" route="right_in_to_bottom_out" depart="12.0" departLane="random" />
    <vehicle id="left_in_to_top_out_117" type="standard_car" route="left_in_to_top_out" depart="12.0" departLane="random" />
    <vehicles id="right_in_to_bottom_out_118" type="standard_car" route="right_in_to_bottom_out" depart="12.0" departLane="random" />
    <vehicle id="bottom_in_to_left_out_119" type="standard_car" route="bottom_in_to_left_out" depart="12.0" departLane="random" />
    <vehicles id="right_in_to_bottom_out_120" type="standard_car" route="right_in_to_bottom_out" depart="12.0" departLane="random" />
    <vehicle id="left_in_to_bottom_out_121" type="standard_car" route="left_in_to_bottom_out" depart="12.0" departLane="random" />
    <vehicles id="left_in_to_right_out_122" type="standard_car" route="left_in_to_right_out" depart="12.0" departLane="random" />
    <vehicles id="top_in_to_bottom_out_123" type="standard_car" route="top_in_to_bottom_out" depart="12.0" departLane="random" />
    <vehicles id="bottom_in_to_right_out_124" type="standard_car" route="bottom_in_to_right_out" depart="12.0" departLane="random" />
    <vehicle id="top_in_to_right_out_125" type="standard_car" route="top_in_to_right_out" depart="12.0" departLane="random" />
    <vehicles id="top_in_to_bottom_out_126" type="standard_car" route="top_in_to_bottom_out" depart="12.0" departLane="random" />
    <vehicle id="top_in_to_right_out_127" type="standard_car" route="top_in_to_right_out" depart="12.0" departLane="random" />
    <vehicles id="top_in_to_bottom_out_128" type="standard_car" route="top_in_to_bottom_out" depart="13.0" departLane="random" />
    <vehicles id="bottom_in_to_right_out_129" type="standard_car" route="bottom_in_to_right_out" depart="13.0" departLane="random" />
    <vehicles id="left_in_to_right_out_130" type="standard_car" route="left_in_to_right_out" depart="13.0" departLane="random" />
    <vehicles id="bottom_in_to_right_out_131" type="standard_car" route="bottom_in_to_right_out" depart="13.0" departLane="random" />
    <vehicles id="right_in_to_bottom_out_132" type="standard_car" route="right_in_to_bottom_out" depart="13.0" departLane="random" />
    <vehicles id="bottom_in_to_right_out_133" type="standard_car" route="bottom_in_to_right_out" depart="13.0" departLane="random" />
    <vehicles id="bottom_in_to_right_out_134" type="standard_car" route="bottom_in_to_right_out" depart="13.0" departLane="random" />
    <vehicles id="top_in_to_bottom_out_135" type="standard_car" route="top_in_to_bottom_out" depart="13.0" departLane="random" />
    <vehicles id="right_in_to_bottom_out_136" type="standard_car" route="right_in_to_bottom_out" depart="13.0" departLane="random" />
    <vehicle id="left_in_to_bottom_out_137" type="standard_car" route="left_in_to_bottom_out" depart="13.0" departLane="random" />
    <vehicle id="right_in_to_top_out_138" type="standard_car" route="right_in_to_top_out" depart="13.0" departLane="random" />
    <vehicle id="bottom_in_to_left_out_139" type="standard_car" route="bottom_in_to_left_out" depart="13.0" departLane="random" />
    <vehicles id="right_in_to_bottom_out_140" type="standard_car" route="right_in_to_bottom_out" depart="13.0" departLane="random" />
    <vehicles id="right_in_to_bottom_out_141" type="standard_car" route="right_in_to_bottom_out" depart="13.0" departLane="random" />
    <vehicle id="bottom_in_to_top_out_142" type="standard_car" route="bottom_in_to_top_out" depart="14.0" departLane="random" />
    <vehicle id="left_in_to_top_out_143" type="standard_car" route="left_in_to_top_out" depart="14.0" departLane="random" />
    <vehicle id="right_in_to_left_out_144" type="standard_car" route="right_in_to_left_out" depart="14.0" departLane="random" />
    <vehicle id="right_in_to_top_out_145" type="standard_car" route="right_in_to_top_out" depart="14.0" departLane="random" />
    <vehicles id="bottom_in_to_right_out_146" type="standard_car" route="bottom_in_to_right_out" depart="14.0" departLane="random" />
    <vehicle id="bottom_in_to_top_out_147" type="standard_car" route="bottom_in_to_top_out" depart="14.0" departLane="random" />
    <vehicles id="bottom_in_to_right_out_148" type="standard_car" route="bottom_in_to_right_out" depart="14.0" departLane="random" />
    <vehicles id="left_in_to_right_out_149" type="standard_car" route="left_in_to_right_out" depart="14.0" departLane="random" />
    <vehicle id="right_in_to_top_out_150" type="standard_car" route="right_in_to_top_out" depart="14.0" departLane="random" />
    <vehicles id="bottom_in_to_right_out_151" type="standard_car" route="bottom_in_to_right_out" depart="14.0" departLane="random" />
    <vehicles id="bottom_in_to_right_out_152" type="standard_car" route="bottom_in_to_right_out" depart="14.0" departLane="random" />
    <vehicle id="right_in_to_left_out_153" type="standard_car" route="right_in_to_left_out" depart="14.0" departLane="random" />
    <vehicles id="right_in_to_bottom_out_154" type="standard_car" route="right_in_to_bottom_out" depart="14.0" departLane="random" />
    <vehicle id="top_in_to_left_out_155" type="standard_car" route="top_in_to_left_out" depart="14.0" departLane="random" />
    <vehicle id="bottom_in_to_top_out_156" type="standard_car" route="bottom_in_to_top_out" depart="14.0" departLane="random" />
    <vehicle id="right_in_to_top_out_157" type="standard_car" route="right_in_to_top_out" depart="14.0" departLane="random" />
    <vehicle id="bottom_in_to_top_out_158" type="standard_car" route="bottom_in_to_top_out" depart="14.0" departLane="random" />
    <vehicles id="bottom_in_to_right_out_159" type="standard_car" route="bottom_in_to_right_out" depart="14.0" departLane="random" />
    <vehicle id="right_in_to_top_out_160" type="standard_car" route="right_in_to_top_out" depart="14.0" departLane="random" />
    <vehicle id="left_in_to_top_out_161" type="standard_car" route="left_in_to_top_out" depart="14.0" departLane="random" />
    <vehicle id="right_in_to_left_out_162" type="standard_car" route="right_in_to_left_out" depart="14.0" departLane="random" />
    <vehicle id="bottom_in_to_left_out_163" type="standard_car" route="bottom_in_to_left_out" depart="14.0" departLane="random" />
    <vehicle id="right_in_to_left_out_164" type="standard_car" route="right_in_to_left_out" depart="14.0" departLane="random" />
    <vehicle id="right_in_to_left_out_165" type="standard_car" route="right_in_to_left_out" depart="15.0" departLane="random" />
    <vehicle id="top_in_to_right_out_166" type="standard_car" route="top_in_to_right_out" depart="15.0" departLane="random" />
    <vehicles id="top_in_to_bottom_out_167" type="standard_car" route="top_in_to_bottom_out" depart="15.0" departLane="random" />
    <vehicle id="left_in_to_top_out_168" type="standard_car" route="left_in_to_top_out" depart="15.0" departLane="random" />
    <vehicles id="bottom_in_to_right_out_169" type="standard_car" route="bottom_in_to_right_out" depart="15.0" departLane="random" />
    <vehicles id="bottom_in_to_right_out_170" type="standard_car" route="bottom_in_to_right_out" depart="15.0" departLane="random" />
    <vehicles id="bottom_in_to_right_out_171" type="standard_car" route="bottom_in_to_right_out" depart="15.0" departLane="random" />
    <vehicle id="right_in_to_left_out_172" type="standard_car" route="right_in_to_left_out" depart="15.0" departLane="random" />
    <vehicles id="right_in_to_bottom_out_173" type="standard_car" route="right_in_to_bottom_out" depart="15.0" departLane="random" />
    <vehicles id="left_in_to_right_out_174" type="standard_car" route="left_in_to_right_out" depart="15.0" departLane="random" />
    <vehicle id="right_in_to_top_out_175" type="standard_car" route="right_in_to_top_out" depart="15.0" departLane="random" />
    <vehicles id="left_in_to_right_out_176" type="standard_car" route="left_in_to_right_out" depart="15.0" departLane="random" />
    <vehicles id="bottom_in_to_right_out_177" type="standard_car" route="bottom_in_to_right_out" depart="15.0" departLane="random" />
    <vehicles id="bottom_in_to_right_out_178" type="standard_car" route="bottom_in_to_right_out" depart="15.0" departLane="random" />
    <vehicles id="right_in_to_bottom_out_179" type="standard_car" route="right_in_to_bottom_out" depart="15.0" departLane="random" />
    <vehicles id="left_in_to_right_out_180" type="standard_car" route="left_in_to_right_out" depart="15.0" departLane="random" />
    <vehicle id="top_in_to_right_out_181" type="standard_car" route="top_in_to_right_out" depart="15.0" departLane="random" />
    <vehicle id="right_in_to_top_out_182" type="standard_car" route="right_in_to_top_out" depart="15.0" departLane="random" />
    <vehicles id="bottom_in_to_right_out_183" type="standard_car" route="bottom_in_to_right_out" depart="15.0" departLane="random" />
    <vehicle id="left_in_to_top_out_184" type="standard_car" route="left_in_to_top_out" depart="15.0" departLane="random" />
    <vehicle id="bottom_in_to_top_out_185" type="standard_car" route="bottom_in_to_top_out" depart="16.0" departLane="random" />
    <vehicles id="left_in_to_right_out_186" type="standard_car" route="left_in_to_right_out" depart="16.0" departLane="random" />
    <vehicle id="right_in_to_left_out_187" type="standard_car" route="right_in_to_left_out" depart="16.0" departLane="random" />
    <vehicle id="left_in_to_top_out_188" type="standard_car" route="left_in_to_top_out" depart="16.0" departLane="random" />
    <vehicles id="right_in_to_bottom_out_189" type="standard_car" route="right_in_to_bottom_out" depart="16.0" departLane="random" />
    <vehicles id="left_in_to_right_out_190" type="standard_car" route="left_in_to_right_out" depart="16.0" departLane="random" />
    <vehicles id="bottom_in_to_right_out_191" type="standard_car" route="bottom_in_to_right_out" depart="16.0" departLane="random" />
    <vehicles id="right_in_to_bottom_out_192" type="standard_car" route="right_in_to_bottom_out" depart="16.0" departLane="random" />
    <vehicle id="top_in_to_right_out_193" type="standard_car" route="top_in_to_right_out" depart="16.0" departLane="random" />
    <vehicles id="right_in_to_bottom_out_194" type="standard_car" route="right_in_to_bottom_out" depart="16.0" departLane="random" />
    <vehicles id="left_in_to_right_out_195" type="standard_car" route="left_in_to_right_out" depart="16.0" departLane="random" />
    <vehicles id="bottom_in_to_right_out_196" type="standard_car" route="bottom_in_to_right_out" depart="16.0" departLane="random" />
    <vehicle id="bottom_in_to_top_out_197" type="standard_car" route="bottom_in_to_top_out" depart="16.0" departLane="random" />
    <vehicles id="left_in_to_right_out_198" type="standard_car" route="left_in_to_right_out" depart="16.0" departLane="random" />
    <vehicle id="bottom_in_to_top_out_199" type="standard_car" route="bottom_in_to_top_out" depart="16.0" departLane="random" />
    <vehicle id="top_in_to_left_out_200" type="standard_car" route="top_in_to_left_out" depart="16.0" departLane="random" />
    <vehicles id="right_in_to_bottom_out_201" type="standard_car" route="right_in_to_bottom_out" depart="16.0" departLane="random" />
    <vehicles id="right_in_to_bottom_out_202" type="standard_car" route="right_in_to_bottom_out" depart="16.0" departLane="random" />
    <vehicle id="right_in_to_left_out_203" type="standard_car" route="right_in_to_left_out" depart="16.0" departLane="random" />
    <vehicles id="top_in_to_bottom_out_204" type="standard_car" route="top_in_to_bottom_out" depart="16.0" departLane="random" />
    <vehicle id="top_in_to_left_out_205" type="standard_car" route="top_in_to_left_out" depart="16.0" departLane="random" />
    <vehicle id="right_in_to_top_out_206" type="standard_car" route="right_in_to_top_out" depart="16.0" departLane="random" />
    <vehicles id="top_in_to_bottom_out_207" type="standard_car" route="top_in_to_bottom_out" depart="16.0" departLane="random" />
    <vehicles id="right_in_to_bottom_out_208" type="standard_car" route="right_in_to_bottom_out" depart="16.0" departLane="random" />
    <vehicle id="left_in_to_top_out_209" type="standard_car" route="left_in_to_top_out" depart="16.0" departLane="random" />
    <vehicles id="bottom_in_to_right_out_210" type="standard_car" route="bottom_in_to_right_out" depart="16.0" departLane="random" />
    <vehicles id="left_in_to_right_out_211" type="standard_car" route="left_in_to_right_out" depart="16.0" departLane="random" />
    <vehicle id="left_in_to_top_out_212" type="standard_car" route="left_in_to_top_out" depart="16.0" departLane="random" />
    <vehicles id="right_in_to_bottom_out_213" type="standard_car" route="right_in_to_bottom_out" depart="16.0" departLane="random" />
    <vehicles id="bottom_in_to_right_out_214" type="standard_car" route="bottom_in_to_right_out" depart="16.0" departLane="random" />
    <vehicle id="left_in_to_top_out_215" type="standard_car" route="left_in_to_top_out" depart="16.0" departLane="random" />
    <vehicles id="right_in_to_bottom_out_216" type="standard_car" route="right_in_to_bottom_out" depart="16.0" departLane="random" />
    <vehicles id="bottom_in_to_right_out_217" type="standard_car" route="bottom_in_to_right_out" depart="16.0" departLane="random" />
    <vehicles id="bottom_in_to_right_out_218" type="standard_car" route="bottom_in_to_right_out" depart="17.0" departLane="random" />
    <vehicle id="bottom_in_to_left_out_219" type="standard_car" route="bottom_in_to_left_out" depart="17.0" departLane="random" />
    <vehicles id="left_in_to_right_out_220" type="standard_car" route="left_in_to_right_out" depart="17.0" departLane="random" />
    <vehicle id="top_in_to_left_out_221" type="standard_car" route="top_in_to_left_out" depart="17.0" departLane="random" />
    <vehicles id="right_in_to_bottom_out_222" type="standard_car" route="right_in_to_bottom_out" depart="17.0" departLane="random" />
    <vehicle id="right_in_to_top_out_223" type="standard_car" route="right_in_to_top_out" depart="17.0" departLane="random" />