<routes>
    <vType accel="0.8" id="standard_car" decel="4.5" length="5.0" minGap="2.5" maxSpeed="16.67" sigma="0.5" />
    
    <route id="bottom_in_to_right_out" edges="bottom_in right_out" />
    <route id="bottom_in_to_top_out" edges="bottom_in top_out" />
    <route id="bottom_in_to_left_out" edges="bottom_in left_out" />
    <route id="left_in_to_bottom_out" edges="left_in bottom_out" />
    <route id="left_in_to_right_out" edges="left_in right_out" />
    <route id="left_in_to_top_out" edges="left_in top_out" />
    <route id="right_in_to_top_out" edges="right_in top_out" />
    <route id="right_in_to_left_out" edges="right_in left_out" />
    <route id="right_in_to_bottom_out" edges="right_in bottom_out" />
    <route id="top_in_to_left_out" edges="top_in left_out" />
    <route id="top_in_to_bottom_out" edges="top_in bottom_out" />
    <route id="top_in_to_right_out" edges="top_in right_out" />
    <vehicle id="right_in_to_bottom_out_0" type="standard_car" route="right_in_to_bottom_out" depart="8.0" departLane="allowed" />
    <vehicle id="left_in_to_right_out_1" type="standard_car" route="left_in_to_right_out" depart="8.0" departLane="allowed" />
    <vehicle id="bottom_in_to_left_out_2" type="standard_car" route="bottom_in_to_left_out" depart="66.0" departLane="allowed" />
    <vehicle id="right_in_to_left_out_3" type="standard_car" route="right_in_to_left_out" depart="100.0" departLane="allowed" />
    <vehicle id="bottom_in_to_top_out_4" type="standard_car" route="bottom_in_to_top_out" depart="119.0" departLane="allowed" />
    <vehicle id="top_in_to_bottom_out_5" type="standard_car" route="top_in_to_bottom_out" depart="122.0" departLane="allowed" />
    <vehicle id="bottom_in_to_left_out_6" type="standard_car" route="bottom_in_to_left_out" depart="122.0" departLane="allowed" />
    <vehicle id="left_in_to_bottom_out_7" type="standard_car" route="left_in_to_bottom_out" depart="146.0" departLane="allowed" />
    <vehicle id="top_in_to_bottom_out_8" type="standard_car" route="top_in_to_bottom_out" depart="149.0" departLane="allowed" />
    <vehicle id="bottom_in_to_top_out_9" type="standard_car" route="bottom_in_to_top_out" depart="149.0" departLane="allowed" />
    <vehicle id="left_in_to_right_out_10" type="standard_car" route="left_in_to_right_out" depart="169.0" departLane="allowed" />
    <vehicle id="bottom_in_to_left_out_11" type="standard_car" route="bottom_in_to_left_out" depart="213.0" departLane="allowed" />
    <vehicle id="top_in_to_bottom_out_12" type="standard_car" route="top_in_to_bottom_out" depart="214.0" departLane="allowed" />
    <vehicle id="right_in_to_left_out_13" type="standard_car" route="right_in_to_left_out" depart="219.0" departLane="allowed" />
    <vehicle id="right_in_to_left_out_14" type="standard_car" route="right_in_to_left_out" depart="222.0" departLane="allowed" />
    <vehicle id="left_in_to_right_out_15" type="standard_car" route="left_in_to_right_out" depart="225.0" departLane="allowed" />
    <vehicle id="top_in_to_bottom_out_16" type="standard_car" route="top_in_to_bottom_out" depart="227.0" departLane="allowed" />
    <vehicle id="bottom_in_to_top_out_17" type="standard_car" route="bottom_in_to_top_out" depart="279.0" departLane="allowed" />
    <vehicle id="left_in_to_top_out_18" type="standard_car" route="left_in_to_top_out" depart="305.0" departLane="allowed" />
    <vehicle id="right_in_to_left_out_19" type="standard_car" route="right_in_to_left_out" depart="305.0" departLane="allowed" />
    <vehicle id="right_in_to_top_out_20" type="standard_car" route="right_in_to_top_out" depart="322.0" departLane="allowed" />
    <vehicle id="top_in_to_bottom_out_21" type="standard_car" route="top_in_to_bottom_out" depart="326.0" departLane="allowed" />
    <vehicle id="right_in_to_top_out_22" type="standard_car" route="right_in_to_top_out" depart="326.0" departLane="allowed" />
    <vehicle id="right_in_to_bottom_out_23" type="standard_car" route="right_in_to_bottom_out" depart="342.0" departLane="allowed" />
    <vehicle id="right_in_to_left_out_24" type="standard_car" route="right_in_to_left_out" depart="347.0" departLane="allowed" />
    <vehicle id="bottom_in_to_top_out_25" type="standard_car" route="bottom_in_to_top_out" depart="353.0" departLane="allowed" />
    <vehicle id="top_in_to_left_out_26" type="standard_car" route="top_in_to_left_out" depart="356.0" departLane="allowed" />
    <vehicle id="top_in_to_bottom_out_27" type="standard_car" route="top_in_to_bottom_out" depart="361.0" departLane="allowed" />
    <vehicle id="left_in_to_right_out_28" type="standard_car" route="left_in_to_right_out" depart="363.0" departLane="allowed" />
    <vehicle id="right_in_to_left_out_29" type="standard_car" route="right_in_to_left_out" depart="364.0" departLane="allowed" />
    <vehicle id="bottom_in_to_top_out_30" type="standard_car" route="bottom_in_to_top_out" depart="372.0" departLane="allowed" />
    <vehicle id="bottom_in_to_top_out_31" type="standard_car" route="bottom_in_to_top_out" depart="372.0" departLane="allowed" />
    <vehicle id="top_in_to_bottom_out_32" type="standard_car" route="top_in_to_bottom_out" depart="373.0" departLane="allowed" />
    <vehicle id="right_in_to_left_out_33" type="standard_car" route="right_in_to_left_out" depart="379.0" departLane="allowed" />
    <vehicle id="bottom_in_to_top_out_34" type="standard_car" route="bottom_in_to_top_out" depart="380.0" departLane="allowed" />
    <vehicle id="top_in_to_bottom_out_35" type="standard_car" route="top_in_to_bottom_out" depart="390.0" departLane="allowed" />
    <vehicle id="left_in_to_right_out_36" type="standard_car" route="left_in_to_right_out" depart="394.0" departLane="allowed" />
    <vehicle id="top_in_to_bottom_out_37" type="standard_car" route="top_in_to_bottom_out" depart="400.0" departLane="allowed" />
    <vehicle id="top_in_to_bottom_out_38" type="standard_car" route="top_in_to_bottom_out" depart="403.0" departLane="allowed" />
    <vehicle id="top_in_to_bottom_out_39" type="standard_car" route="top_in_to_bottom_out" depart="404.0" departLane="allowed" />
    <vehicle id="right_in_to_left_out_40" type="standard_car" route="right_in_to_left_out" depart="409.0" departLane="allowed" />
    <vehicle id="right_in_to_top_out_41" type="standard_car" route="right_in_to_top_out" depart="412.0" departLane="allowed" />
    <vehicle id="bottom_in_to_top_out_42" type="standard_car" route="bottom_in_to_top_out" depart="414.0" departLane="allowed" />
    <vehicle id="top_in_to_bottom_out_43" type="standard_car" route="top_in_to_bottom_out" depart="427.0" departLane="allowed" />
    <vehicle id="left_in_to_right_out_44" type="standard_car" route="left_in_to_right_out" depart="442.0" departLane="allowed" />
    <vehicle id="right_in_to_left_out_45" type="standard_car" route="right_in_to_left_out" depart="443.0" departLane="allowed" />
    <vehicle id="top_in_to_left_out_46" type="standard_car" route="top_in_to_left_out" depart="459.0" departLane="allowed" />
    <vehicle id="top_in_to_right_out_47" type="standard_car" route="top_in_to_right_out" depart="461.0" departLane="allowed" />
    <vehicle id="bottom_in_to_left_out_48" type="standard_car" route="bottom_in_to_left_out" depart="463.0" departLane="allowed" />
    <vehicle id="bottom_in_to_top_out_49" type="standard_car" route="bottom_in_to_top_out" depart="469.0" departLane="allowed" />
    <vehicle id="left_in_to_right_out_50" type="standard_car" route="left_in_to_right_out" depart="470.0" departLane="allowed" />
    <vehicle id="bottom_in_to_top_out_51" type="standard_car" route="bottom_in_to_top_out" depart="472.0" departLane="allowed" />
    <vehicle id="right_in_to_left_out_52" type="standard_car" route="right_in_to_left_out" depart="480.0" departLane="allowed" />
    <vehicle id="bottom_in_to_top_out_53" type="standard_car" route="bottom_in_to_top_out" depart="502.0" departLane="allowed" />
    <vehicle id="left_in_to_right_out_54" type="standard_car" route="left_in_to_right_out" depart="507.0" departLane="allowed" />
    <vehicle id="left_in_to_top_out_55" type="standard_car" route="left_in_to_top_out" depart="508.0" departLane="allowed" />
    <vehicle id="top_in_to_bottom_out_56" type="standard_car" route="top_in_to_bottom_out" depart="509.0" departLane="allowed" />
    <vehicle id="bottom_in_to_right_out_57" type="standard_car" route="bottom_in_to_right_out" depart="509.0" departLane="allowed" />
    <vehicle id="bottom_in_to_top_out_58" type="standard_car" route="bottom_in_to_top_out" depart="510.0" departLane="allowed" />
    <vehicle id="left_in_to_right_out_59" type="standard_car" route="left_in_to_right_out" depart="512.0" departLane="allowed" />
    <vehicle id="right_in_to_left_out_60" type="standard_car" route="right_in_to_left_out" depart="515.0" departLane="allowed" />
    <vehicle id="bottom_in_to_top_out_61" type="standard_car" route="bottom_in_to_top_out" depart="517.0" departLane="allowed" />
    <vehicle id="bottom_in_to_top_out_62" type="standard_car" route="bottom_in_to_top_out" depart="518.0" departLane="allowed" />
    <vehicle id="top_in_to_bottom_out_63" type="standard_car" route="top_in_to_bottom_out" depart="531.0" departLane="allowed" />
    <vehicle id="bottom_in_to_left_out_64" type="standard_car" route="bottom_in_to_left_out" depart="533.0" departLane="allowed" />
    <vehicle id="left_in_to_top_out_65" type="standard_car" route="left_in_to_top_out" depart="541.0" departLane="allowed" />
    <vehicle id="bottom_in_to_top_out_66" type="standard_car" route="bottom_in_to_top_out" depart="548.0" departLane="allowed" />
    <vehicle id="bottom_in_to_left_out_67" type="standard_car" route="bottom_in_to_left_out" depart="551.0" departLane="allowed" />
    <vehicle id="left_in_to_bottom_out_68" type="standard_car" route="left_in_to_bottom_out" depart="561.0" departLane="allowed" />
    <vehicle id="right_in_to_left_out_69" type="standard_car" route="right_in_to_left_out" depart="564.0" departLane="allowed" />
    <vehicle id="right_in_to_bottom_out_70" type="standard_car" route="right_in_to_bottom_out" depart="569.0" departLane="allowed" />
    <vehicle id="top_in_to_left_out_71" type="standard_car" route="top_in_to_left_out" depart="571.0" departLane="allowed" />
    <vehicle id="right_in_to_left_out_72" type="standard_car" route="right_in_to_left_out" depart="575.0" departLane="allowed" />
    <vehicle id="left_in_to_right_out_73" type="standard_car" route="left_in_to_right_out" depart="575.0" departLane="allowed" />
    <vehicle id="right_in_to_bottom_out_74" type="standard_car" route="right_in_to_bottom_out" depart="581.0" departLane="allowed" />
    <vehicle id="right_in_to_left_out_75" type="standard_car" route="right_in_to_left_out" depart="582.0" departLane="allowed" />
    <vehicle id="bottom_in_to_right_out_76" type="standard_car" route="bottom_in_to_right_out" depart="585.0" departLane="allowed" />
    <vehicle id="bottom_in_to_top_out_77" type="standard_car" route="bottom_in_to_top_out" depart="588.0" departLane="allowed" />
    <vehicle id="top_in_to_bottom_out_78" type="standard_car" route="top_in_to_bottom_out" depart="588.0" departLane="allowed" />
    <vehicle id="right_in_to_top_out_79" type="standard_car" route="right_in_to_top_out" depart="589.0" departLane="allowed" />
    <vehicle id="right_in_to_left_out_80" type="standard_car" route="right_in_to_left_out" depart="595.0" departLane="allowed" />
    <vehicle id="top_in_to_bottom_out_81" type="standard_car" route="top_in_to_bottom_out" depart="596.0" departLane="allowed" />
    <vehicle id="top_in_to_bottom_out_82" type="standard_car" route="top_in_to_bottom_out" depart="597.0" departLane="allowed" />
    <vehicle id="bottom_in_to_top_out_83" type="standard_car" route="bottom_in_to_top_out" depart="601.0" departLane="allowed" />
    <vehicle id="top_in_to_bottom_out_84" type="standard_car" route="top_in_to_bottom_out" depart="602.0" departLane="allowed" />
    <vehicle id="bottom_in_to_top_out_85" type="standard_car" route="bottom_in_to_top_out" depart="602.0" departLane="allowed" />
    <vehicle id="right_in_to_left_out_86" type="standard_car" route="right_in_to_left_out" depart="602.0" departLane="allowed" />
    <vehicle id="left_in_to_right_out_87" type="standard_car" route="left_in_to_right_out" depart="604.0" departLane="allowed" />
    <vehicle id="right_in_to_left_out_88" type="standard_car" route="right_in_to_left_out" depart="606.0" departLane="allowed" />
    <vehicle id="right_in_to_left_out_89" type="standard_car" route="right_in_to_left_out" depart="611.0" departLane="allowed" />
    <vehicle id="right_in_to_left_out_90" type="standard_car" route="right_in_to_left_out" depart="614.0" departLane="allowed" />
    <vehicle id="left_in_to_right_out_91" type="standard_car" route="left_in_to_right_out" depart="615.0" departLane="allowed" />
    <vehicle id="right_in_to_left_out_92" type="standard_car" route="right_in_to_left_out" depart="619.0" departLane="allowed" />
    <vehicle id="bottom_in_to_top_out_93" type="standard_car" route="bottom_in_to_top_out" depart="622.0" departLane="allowed" />
    <vehicle id="bottom_in_to_top_out_94" type="standard_car" route="bottom_in_to_top_out" depart="622.0" departLane="allowed" />
    <vehicle id="left_in_to_right_out_95" type="standard_car" route="left_in_to_right_out" depart="626.0" departLane="allowed" />
    <vehicle id="top_in_to_bottom_out_96" type="standard_car" route="top_in_to_bottom_out" depart="627.0" departLane="allowed" />
    <vehicle id="left_in_to_top_out_97" type="standard_car" route="left_in_to_top_out" depart="631.0" departLane="allowed" />
    <vehicle id="right_in_to_top_out_98" type="standard_car" route="right_in_to_top_out" depart="640.0" departLane="allowed" />
    <vehicle id="top_in_to_bottom_out_99" type="standard_car" route="top_in_to_bottom_out" depart="642.0" departLane="allowed" />
    <vehicle id="top_in_to_bottom_out_100" type="standard_car" route="top_in_to_bottom_out" depart="643.0" departLane="allowed" />
    <vehicle id="left_in_to_bottom_out_101" type="standard_car" route="left_in_to_bottom_out" depart="647.0" departLane="allowed" />
    <vehicle id="top_in_to_left_out_102" type="standard_car" route="top_in_to_left_out" depart="647.0" departLane="allowed" />
    <vehicle id="right_in_to_left_out_103" type="standard_car" route="right_in_to_left_out" depart="652.0" departLane="allowed" />
    <vehicle id="top_in_to_left_out_104" type="standard_car" route="top_in_to_left_out" depart="656.0" departLane="allowed" />
    <vehicle id="left_in_to_right_out_105" type="standard_car" route="left_in_to_right_out" depart="659.0" departLane="allowed" />
    <vehicle id="top_in_to_bottom_out_106" type="standard_car" route="top_in_to_bottom_out" depart="663.0" departLane="allowed" />
    <vehicle id="bottom_in_to_top_out_107" type="standard_car" route="bottom_in_to_top_out" depart="664.0" departLane="allowed" />
    <vehicle id="bottom_in_to_left_out_108" type="standard_car" route="bottom_in_to_left_out" depart="666.0" departLane="allowed" />
    <vehicle id="right_in_to_top_out_109" type="standard_car" route="right_in_to_top_out" depart="678.0" departLane="allowed" />
    <vehicle id="top_in_to_bottom_out_110" type="standard_car" route="top_in_to_bottom_out" depart="679.0" departLane="allowed" />
    <vehicle id="top_in_to_left_out_111" type="standard_car" route="top_in_to_left_out" depart="680.0" departLane="allowed" />
    <vehicle id="right_in_to_left_out_112" type="standard_car" route="right_in_to_left_out" depart="681.0" departLane="allowed" />
    <vehicle id="right_in_to_left_out_113" type="standard_car" route="right_in_to_left_out" depart="684.0" departLane="allowed" />
    <vehicle id="left_in_to_right_out_114" type="standard_car" route="left_in_to_right_out" depart="686.0" departLane="allowed" />
    <vehicle id="top_in_to_right_out_115" type="standard_car" route="top_in_to_right_out" depart="686.0" departLane="allowed" />
    <vehicle id="bottom_in_to_top_out_116" type="standard_car" route="bottom_in_to_top_out" depart="687.0" departLane="allowed" />
    <vehicle id="left_in_to_right_out_117" type="standard_car" route="left_in_to_right_out" depart="687.0" departLane="allowed" />
    <vehicle id="right_in_to_left_out_118" type="standard_car" route="right_in_to_left_out" depart="695.0" departLane="allowed" />
    <vehicle id="left_in_to_right_out_119" type="standard_car" route="left_in_to_right_out" depart="707.0" departLane="allowed" />
    <vehicle id="right_in_to_left_out_120" type="standard_car" route="right_in_to_left_out" depart="710.0" departLane="allowed" />
    <vehicle id="left_in_to_right_out_121" type="standard_car" route="left_in_to_right_out" depart="710.0" departLane="allowed" />
    <vehicle id="right_in_to_left_out_122" type="standard_car" route="right_in_to_left_out" depart="713.0" departLane="allowed" />
    <vehicle id="top_in_to_right_out_123" type="standard_car" route="top_in_to_right_out" depart="715.0" departLane="allowed" />
    <vehicle id="right_in_to_left_out_124" type="standard_car" route="right_in_to_left_out" depart="715.0" departLane="allowed" />
    <vehicle id="bottom_in_to_top_out_125" type="standard_car" route="bottom_in_to_top_out" depart="716.0" departLane="allowed" />
    <vehicle id="left_in_to_bottom_out_126" type="standard_car" route="left_in_to_bottom_out" depart="717.0" departLane="allowed" />
    <vehicle id="top_in_to_bottom_out_127" type="standard_car" route="top_in_to_bottom_out" depart="717.0" departLane="allowed" />
    <vehicle id="bottom_in_to_top_out_128" type="standard_car" route="bottom_in_to_top_out" depart="718.0" departLane="allowed" />
    <vehicle id="right_in_to_left_out_129" type="standard_car" route="right_in_to_left_out" depart="725.0" departLane="allowed" />
    <vehicle id="bottom_in_to_top_out_130" type="standard_car" route="bottom_in_to_top_out" depart="729.0" departLane="allowed" />
    <vehicle id="right_in_to_left_out_131" type="standard_car" route="right_in_to_left_out" depart="731.0" departLane="allowed" />
    <vehicle id="left_in_to_right_out_132" type="standard_car" route="left_in_to_right_out" depart="731.0" departLane="allowed" />
    <vehicle id="top_in_to_bottom_out_133" type="standard_car" route="top_in_to_bottom_out" depart="734.0" departLane="allowed" />
    <vehicle id="left_in_to_right_out_134" type="standard_car" route="left_in_to_right_out" depart="735.0" departLane="allowed" />
    <vehicle id="bottom_in_to_left_out_135" type="standard_car" route="bottom_in_to_left_out" depart="736.0" departLane="allowed" />
    <vehicle id="right_in_to_left_out_136" type="standard_car" route="right_in_to_left_out" depart="737.0" departLane="allowed" />
    <vehicle id="right_in_to_top_out_137" type="standard_car" route="right_in_to_top_out" depart="738.0" departLane="allowed" />
    <vehicle id="bottom_in_to_top_out_138" type="standard_car" route="bottom_in_to_top_out" depart="746.0" departLane="allowed" />
    <vehicle id="right_in_to_left_out_139" type="standard_car" route="right_in_to_left_out" depart="747.0" departLane="allowed" />
    <vehicle id="bottom_in_to_top_out_140" type="standard_car" route="bottom_in_to_top_out" depart="748.0" departLane="allowed" />
    <vehicle id="right_in_to_left_out_141" type="standard_car" route="right_in_to_left_out" depart="750.0" departLane="allowed" />
    <vehicle id="bottom_in_to_top_out_142" type="standard_car" route="bottom_in_to_top_out" depart="752.0" departLane="allowed" />
    <vehicle id="right_in_to_left_out_143" type="standard_car" route="right_in_to_left_out" depart="754.0" departLane="allowed" />
    <vehicle id="top_in_to_left_out_144" type="standard_car" route="top_in_to_left_out" depart="755.0" departLane="allowed" />
    <vehicle id="top_in_to_bottom_out_145" type="standard_car" route="top_in_to_bottom_out" depart="757.0" departLane="allowed" />
    <vehicle id="left_in_to_right_out_146" type="standard_car" route="left_in_to_right_out" depart="757.0" departLane="allowed" />
    <vehicle id="left_in_to_right_out_147" type="standard_car" route="left_in_to_right_out" depart="757.0" departLane="allowed" />
    <vehicle id="top_in_to_bottom_out_148" type="standard_car" route="top_in_to_bottom_out" depart="758.0" departLane="allowed" />
    <vehicle id="top_in_to_right_out_149" type="standard_car" route="top_in_to_right_out" depart="760.0" departLane="allowed" />
    <vehicle id="bottom_in_to_top_out_150" type="standard_car" route="bottom_in_to_top_out" depart="763.0" departLane="allowed" />
    <vehicle id="top_in_to_right_out_151" type="standard_car" route="top_in_to_right_out" depart="765.0" departLane="allowed" />
    <vehicle id="bottom_in_to_right_out_152" type="standard_car" route="bottom_in_to_right_out" depart="767.0" departLane="allowed" />
    <vehicle id="top_in_to_left_out_153" type="standard_car" route="top_in_to_left_out" depart="767.0" departLane="allowed" />
    <vehicle id="right_in_to_top_out_154" type="standard_car" route="right_in_to_top_out" depart="771.0" departLane="allowed" />
    <vehicle id="top_in_to_bottom_out_155" type="standard_car" route="top_in_to_bottom_out" depart="772.0" departLane="allowed" />
    <vehicle id="bottom_in_to_top_out_156" type="standard_car" route="bottom_in_to_top_out" depart="779.0" departLane="allowed" />
    <vehicle id="top_in_to_left_out_157" type="standard_car" route="top_in_to_left_out" depart="787.0" departLane="allowed" />
    <vehicle id="bottom_in_to_left_out_158" type="standard_car" route="bottom_in_to_left_out" depart="787.0" departLane="allowed" />
    <vehicle id="left_in_to_right_out_159" type="standard_car" route="left_in_to_right_out" depart="791.0" departLane="allowed" />
    <vehicle id="right_in_to_left_out_160" type="standard_car" route="right_in_to_left_out" depart="791.0" departLane="allowed" />
    <vehicle id="bottom_in_to_top_out_161" type="standard_car" route="bottom_in_to_top_out" depart="791.0" departLane="allowed" />
    <vehicle id="left_in_to_right_out_162" type="standard_car" route="left_in_to_right_out" depart="791.0" departLane="allowed" />
    <vehicle id="bottom_in_to_left_out_163" type="standard_car" route="bottom_in_to_left_out" depart="803.0" departLane="allowed" />
    <vehicle id="bottom_in_to_top_out_164" type="standard_car" route="bottom_in_to_top_out" depart="815.0" departLane="allowed" />
    <vehicle id="right_in_to_bottom_out_165" type="standard_car" route="right_in_to_bottom_out" depart="819.0" departLane="allowed" />
    <vehicle id="right_in_to_left_out_166" type="standard_car" route="right_in_to_left_out" depart="820.0" departLane="allowed" />
    <vehicle id="right_in_to_left_out_167" type="standard_car" route="right_in_to_left_out" depart="826.0" departLane="allowed" />
    <vehicle id="top_in_to_bottom_out_168" type="standard_car" route="top_in_to_bottom_out" depart="826.0" departLane="allowed" />
    <vehicle id="left_in_to_right_out_169" type="standard_car" route="left_in_to_right_out" depart="828.0" departLane="allowed" />
    <vehicle id="bottom_in_to_top_out_170" type="standard_car" route="bottom_in_to_top_out" depart="829.0" departLane="allowed" />
    <vehicle id="left_in_to_right_out_171" type="standard_car" route="left_in_to_right_out" depart="832.0" departLane="allowed" />
    <vehicle id="right_in_to_left_out_172" type="standard_car" route="right_in_to_left_out" depart="834.0" departLane="allowed" />
    <vehicle id="bottom_in_to_top_out_173" type="standard_car" route="bottom_in_to_top_out" depart="834.0" departLane="allowed" />
    <vehicle id="right_in_to_bottom_out_174" type="standard_car" route="right_in_to_bottom_out" depart="839.0" departLane="allowed" />
    <vehicle id="right_in_to_left_out_175" type="standard_car" route="right_in_to_left_out" depart="846.0" departLane="allowed" />
    <vehicle id="top_in_to_bottom_out_176" type="standard_car" route="top_in_to_bottom_out" depart="848.0" departLane="allowed" />
    <vehicle id="right_in_to_top_out_177" type="standard_car" route="right_in_to_top_out" depart="849.0" departLane="allowed" />
    <vehicle id="right_in_to_left_out_178" type="standard_car" route="right_in_to_left_out" depart="852.0" departLane="allowed" />
    <vehicle id="left_in_to_right_out_179" type="standard_car" route="left_in_to_right_out" depart="853.0" departLane="allowed" />
    <vehicle id="left_in_to_right_out_180" type="standard_car" route="left_in_to_right_out" depart="859.0" departLane="allowed" />
    <vehicle id="bottom_in_to_top_out_181" type="standard_car" route="bottom_in_to_top_out" depart="861.0" departLane="allowed" />
    <vehicle id="left_in_to_bottom_out_182" type="standard_car" route="left_in_to_bottom_out" depart="862.0" departLane="allowed" />
    <vehicle id="right_in_to_left_out_183" type="standard_car" route="right_in_to_left_out" depart="862.0" departLane="allowed" />
    <vehicle id="right_in_to_left_out_184" type="standard_car" route="right_in_to_left_out" depart="863.0" departLane="allowed" />
    <vehicle id="top_in_to_bottom_out_185" type="standard_car" route="top_in_to_bottom_out" depart="863.0" departLane="allowed" />
    <vehicle id="right_in_to_bottom_out_186" type="standard_car" route="right_in_to_bottom_out" depart="865.0" departLane="allowed" />
    <vehicle id="top_in_to_bottom_out_187" type="standard_car" route="top_in_to_bottom_out" depart="869.0" departLane="allowed" />
    <vehicle id="bottom_in_to_top_out_188" type="standard_car" route="bottom_in_to_top_out" depart="878.0" departLane="allowed" />
    <vehicle id="bottom_in_to_top_out_189" type="standard_car" route="bottom_in_to_top_out" depart="878.0" departLane="allowed" />
    <vehicle id="right_in_to_bottom_out_190" type="standard_car" route="right_in_to_bottom_out" depart="879.0" departLane="allowed" />
    <vehicle id="top_in_to_bottom_out_191" type="standard_car" route="top_in_to_bottom_out" depart="879.0" departLane="allowed" />
    <vehicle id="right_in_to_left_out_192" type="standard_car" route="right_in_to_left_out" depart="889.0" departLane="allowed" />
    <vehicle id="right_in_to_left_out_193" type="standard_car" route="right_in_to_left_out" depart="889.0" departLane="allowed" />
    <vehicle id="bottom_in_to_left_out_194" type="standard_car" route="bottom_in_to_left_out" depart="891.0" departLane="allowed" />
    <vehicle id="right_in_to_left_out_195" type="standard_car" route="right_in_to_left_out" depart="893.0" departLane="allowed" />
    <vehicle id="right_in_to_left_out_196" type="standard_car" route="right_in_to_left_out" depart="894.0" departLane="allowed" />
    <vehicle id="bottom_in_to_top_out_197" type="standard_car" route="bottom_in_to_top_out" depart="901.0" departLane="allowed" />
    <vehicle id="top_in_to_bottom_out_198" type="standard_car" route="top_in_to_bottom_out" depart="902.0" departLane="allowed" />
    <vehicle id="bottom_in_to_top_out_199" type="standard_car" route="bottom_in_to_top_out" depart="902.0" departLane="allowed" />
    <vehicle id="top_in_to_bottom_out_200" type="standard_car" route="top_in_to_bottom_out" depart="902.0" departLane="allowed" />
    <vehicle id="right_in_to_left_out_201" type="standard_car" route="right_in_to_left_out" depart="904.0" departLane="allowed" />
    <vehicle id="left_in_to_right_out_202" type="standard_car" route="left_in_to_right_out" depart="920.0" departLane="allowed" />
    <vehicle id="right_in_to_bottom_out_203" type="standard_car" route="right_in_to_bottom_out" depart="922.0" departLane="allowed" />
    <vehicle id="left_in_to_right_out_204" type="standard_car" route="left_in_to_right_out" depart="922.0" departLane="allowed" />
    <vehicle id="left_in_to_right_out_205" type="standard_car" route="left_in_to_right_out" depart="924.0" departLane="allowed" />
    <vehicle id="bottom_in_to_left_out_206" type="standard_car" route="bottom_in_to_left_out" depart="924.0" departLane="allowed" />
    <vehicle id="top_in_to_bottom_out_207" type="standard_car" route="top_in_to_bottom_out" depart="927.0" departLane="allowed" />
    <vehicle id="top_in_to_right_out_208" type="standard_car" route="top_in_to_right_out" depart="931.0" departLane="allowed" />
    <vehicle id="left_in_to_right_out_209" type="standard_car" route="left_in_to_right_out" depart="931.0" departLane="allowed" />
    <vehicle id="top_in_to_right_out_210" type="standard_car" route="top_in_to_right_out" depart="932.0" departLane="allowed" />
    <vehicle id="left_in_to_right_out_211" type="standard_car" route="left_in_to_right_out" depart="932.0" departLane="allowed" />
    <vehicle id="top_in_to_bottom_out_212" type="standard_car" route="top_in_to_bottom_out" depart="933.0" departLane="allowed" />
    <vehicle id="right_in_to_left_out_213" type="standard_car" route="right_in_to_left_out" depart="935.0" departLane="allowed" />
    <vehicle id="left_in_to_right_out_214" type="standard_car" route="left_in_to_right_out" depart="936.0" departLane="allowed" />
    <vehicle id="top_in_to_left_out_215" type="standard_car" route="top_in_to_left_out" depart="936.0" departLane="allowed" />
    <vehicle id="top_in_to_left_out_216" type="standard_car" route="top_in_to_left_out" depart="937.0" departLane="allowed" />
    <vehicle id="bottom_in_to_right_out_217" type="standard_car" route="bottom_in_to_right_out" depart="941.0" departLane="allowed" />
    <vehicle id="left_in_to_right_out_218" type="standard_car" route="left_in_to_right_out" depart="942.0" departLane="allowed" />
    <vehicle id="bottom_in_to_top_out_219" type="standard_car" route="bottom_in_to_top_out" depart="948.0" departLane="allowed" />
    <vehicle id="bottom_in_to_top_out_220" type="standard_car" route="bottom_in_to_top_out" depart="951.0" departLane="allowed" />
    <vehicle id="top_in_to_bottom_out_221" type="standard_car" route="top_in_to_bottom_out" depart="954.0" departLane="allowed" />