<routes>
    <vType accel="0.8" id="standard_car" decel="4.5" length="5.0" minGap="2.5" maxSpeed="16.67" sigma="0.5" />
    
    <route id="bottom_in_to_right_out" edges="bottom_in right_out" />
    <route id="bottom_in_to_top_out" edges="bottom_in top_out" />
    <route id="bottom_in_to_left_out" edges="bottom_in left_out" />
    <route id="left_in_to_bottom_out" edges="left_in bottom_out" />
    <route id="left_in_to_right_out" edges="left_in right_out" />
    <route id="left_in_to_top_out" edges="left_in top_out" />
    <route id="right_in_to_top_out" edges="right_in top_out" />
    <route id="right_in_to_left_out" edges="right_in left_out" />
    <route id="right_in_to_bottom_out" edges="right_in bottom_out" />
    <route id="top_in_to_left_out" edges="top_in left_out" />
    <route id="top_in_to_bottom_out" edges="top_in bottom_out" />
    <route id="top_in_to_right_out" edges="top_in right_out" />
    <vehicles id="right_in_to_left_out_0" type="standard_car" route="right_in_to_left_out" depart="42.0" departLane="random" />
    <vehicles id="left_in_to_right_out_1" type="standard_car" route="left_in_to_right_out" depart="67.0" departLane="random" />
    <vehicle id="right_in_to_top_out_2" type="standard_car" route="right_in_to_top_out" depart="94.0" departLane="random" />
    <vehicles id="right_in_to_left_out_3" type="standard_car" route="right_in_to_left_out" depart="112.0" departLane="random" />
    <vehicles id="right_in_to_left_out_4" type="standard_car" route="right_in_to_left_out" depart="123.0" departLane="random" />
    <vehicles id="right_in_to_left_out_5" type="standard_car" route="right_in_to_left_out" depart="129.0" departLane="random" />
    <vehicle id="left_in_to_top_out_6" type="standard_car" route="left_in_to_top_out" depart="160.0" departLane="random" />
    <vehicles id="left_in_to_right_out_7" type="standard_car" route="left_in_to_right_out" depart="193.0" departLane="random" />
    <vehicles id="bottom_in_to_top_out_8" type="standard_car" route="bottom_in_to_top_out" depart="195.0" departLane="random" />
    <vehicles id="top_in_to_bottom_out_9" type="standard_car" route="top_in_to_bottom_out" depart="198.0" departLane="random" />
    <vehicles id="bottom_in_to_top_out_10" type="standard_car" route="bottom_in_to_top_out" depart="199.0" departLane="random" />
    <vehicle id="top_in_to_left_out_11" type="standard_car" route="top_in_to_left_out" depart="208.0" departLane="random" />
    <vehicles id="top_in_to_bottom_out_12" type="standard_car" route="top_in_to_bottom_out" depart="226.0" departLane="random" />
    <vehicles id="bottom_in_to_top_out_13" type="standard_car" route="bottom_in_to_top_out" depart="231.0" departLane="random" />
    <vehicle id="left_in_to_bottom_out_14" type="standard_car" route="left_in_to_bottom_out" depart="232.0" departLane="random" />
    <vehicles id="right_in_to_left_out_15" type="standard_car" route="right_in_to_left_out" depart="235.0" departLane="random" />
    <vehicle id="right_in_to_top_out_16" type="standard_car" route="right_in_to_top_out" depart="246.0" departLane="random" />
    <vehicle id="bottom_in_to_left_out_17" type="standard_car" route="bottom_in_to_left_out" depart="248.0" departLane="random" />
    <vehicles id="left_in_to_right_out_18" type="standard_car" route="left_in_to_right_out" depart="250.0" departLane="random" />
    <vehicles id="right_in_to_left_out_19" type="standard_car" route="right_in_to_left_out" depart="251.0" departLane="random" />
    <vehicles id="bottom_in_to_top_out_20" type="standard_car" route="bottom_in_to_top_out" depart="257.0" departLane="random" />
    <vehicles id="right_in_to_left_out_21" type="standard_car" route="right_in_to_left_out" depart="257.0" departLane="random" />
    <vehicle id="bottom_in_to_right_out_22" type="standard_car" route="bottom_in_to_right_out" depart="260.0" departLane="random" />
    <vehicles id="top_in_to_bottom_out_23" type="standard_car" route="top_in_to_bottom_out" depart="282.0" departLane="random" />
    <vehicles id="right_in_to_left_out_24" type="standard_car" route="right_in_to_left_out" depart="285.0" departLane="random" />
    <vehicles id="left_in_to_right_out_25" type="standard_car" route="left_in_to_right_out" depart="290.0" departLane="random" />
    <vehicles id="left_in_to_right_out_26" type="standard_car" route="left_in_to_right_out" depart="309.0" departLane="random" />
    <vehicles id="left_in_to_right_out_27" type="standard_car" route="left_in_to_right_out" depart="310.0" departLane="random" />
    <vehicle id="right_in_to_bottom_out_28" type="standard_car" route="right_in_to_bottom_out" depart="314.0" departLane="random" />
    <vehicles id="right_in_to_left_out_29" type="standard_car" route="right_in_to_left_out" depart="315.0" departLane="random" />
    <vehicles id="top_in_to_bottom_out_30" type="standard_car" route="top_in_to_bottom_out" depart="324.0" departLane="random" />
    <vehicles id="bottom_in_to_top_out_31" type="standard_car" route="bottom_in_to_top_out" depart="330.0" departLane="random" />
    <vehicles id="left_in_to_right_out_32" type="standard_car" route="left_in_to_right_out" depart="331.0" departLane="random" />
    <vehicles id="top_in_to_bottom_out_33" type="standard_car" route="top_in_to_bottom_out" depart="342.0" departLane="random" />
    <vehicles id="right_in_to_left_out_34" type="standard_car" route="right_in_to_left_out" depart="345.0" departLane="random" />
    <vehicles id="bottom_in_to_top_out_35" type="standard_car" route="bottom_in_to_top_out" depart="357.0" departLane="random" />
    <vehicle id="top_in_to_left_out_36" type="standard_car" route="top_in_to_left_out" depart="360.0" departLane="random" />
    <vehicles id="bottom_in_to_top_out_37" type="standard_car" route="bottom_in_to_top_out" depart="362.0" departLane="random" />
    <vehicle id="right_in_to_bottom_out_38" type="standard_car" route="right_in_to_bottom_out" depart="364.0" departLane="random" />
    <vehicles id="top_in_to_bottom_out_39" type="standard_car" route="top_in_to_bottom_out" depart="377.0" departLane="random" />
    <vehicle id="right_in_to_top_out_40" type="standard_car" route="right_in_to_top_out" depart="385.0" departLane="random" />
    <vehicle id="top_in_to_right_out_41" type="standard_car" route="top_in_to_right_out" depart="391.0" departLane="random" />
    <vehicles id="right_in_to_left_out_42" type="standard_car" route="right_in_to_left_out" depart="394.0" departLane="random" />
    <vehicle id="bottom_in_to_left_out_43" type="standard_car" route="bottom_in_to_left_out" depart="402.0" departLane="random" />
    <vehicles id="left_in_to_right_out_44" type="standard_car" route="left_in_to_right_out" depart="405.0" departLane="random" />
    <vehicle id="right_in_to_bottom_out_45" type="standard_car" route="right_in_to_bottom_out" depart="422.0" departLane="random" />
    <vehicles id="bottom_in_to_top_out_46" type="standard_car" route="bottom_in_to_top_out" depart="425.0" departLane="random" />
    <vehicle id="bottom_in_to_right_out_47" type="standard_car" route="bottom_in_to_right_out" depart="430.0" departLane="random" />
    <vehicles id="bottom_in_to_top_out_48" type="standard_car" route="bottom_in_to_top_out" depart="435.0" departLane="random" />
    <vehicle id="left_in_to_bottom_out_49" type="standard_car" route="left_in_to_bottom_out" depart="436.0" departLane="random" />
    <vehicles id="right_in_to_left_out_50" type="standard_car" route="right_in_to_left_out" depart="440.0" departLane="random" />
    <vehicle id="top_in_to_left_out_51" type="standard_car" route="top_in_to_left_out" depart="441.0" departLane="random" />
    <vehicle id="top_in_to_left_out_52" type="standard_car" route="top_in_to_left_out" depart="442.0" departLane="random" />
    <vehicles id="top_in_to_bottom_out_53" type="standard_car" route="top_in_to_bottom_out" depart="445.0" departLane="random" />
    <vehicle id="top_in_to_left_out_54" type="standard_car" route="top_in_to_left_out" depart="448.0" departLane="random" />
    <vehicles id="bottom_in_to_top_out_55" type="standard_car" route="bottom_in_to_top_out" depart="449.0" departLane="random" />
    <vehicle id="left_in_to_bottom_out_56" type="standard_car" route="left_in_to_bottom_out" depart="452.0" departLane="random" />
    <vehicle id="bottom_in_to_right_out_57" type="standard_car" route="bottom_in_to_right_out" depart="458.0" departLane="random" />
    <vehicle id="bottom_in_to_right_out_58" type="standard_car" route="bottom_in_to_right_out" depart="458.0" departLane="random" />
    <vehicles id="right_in_to_left_out_59" type="standard_car" route="right_in_to_left_out" depart="460.0" departLane="random" />
    <vehicles id="top_in_to_bottom_out_60" type="standard_car" route="top_in_to_bottom_out" depart="461.0" departLane="random" />
    <vehicle id="bottom_in_to_left_out_61" type="standard_car" route="bottom_in_to_left_out" depart="463.0" departLane="random" />
    <vehicle id="top_in_to_left_out_62" type="standard_car" route="top_in_to_left_out" depart="463.0" departLane="random" />
    <vehicles id="top_in_to_bottom_out_63" type="standard_car" route="top_in_to_bottom_out" depart="468.0" departLane="random" />
    <vehicles id="top_in_to_bottom_out_64" type="standard_car" route="top_in_to_bottom_out" depart="469.0" departLane="random" />
    <vehicle id="bottom_in_to_right_out_65" type="standard_car" route="bottom_in_to_right_out" depart="471.0" departLane="random" />
    <vehicles id="left_in_to_right_out_66" type="standard_car" route="left_in_to_right_out" depart="475.0" departLane="random" />
    <vehicles id="bottom_in_to_top_out_67" type="standard_car" route="bottom_in_to_top_out" depart="478.0" departLane="random" />
    <vehicles id="right_in_to_left_out_68" type="standard_car" route="right_in_to_left_out" depart="481.0" departLane="random" />
    <vehicle id="bottom_in_to_right_out_69" type="standard_car" route="bottom_in_to_right_out" depart="482.0" departLane="random" />
    <vehicle id="left_in_to_bottom_out_70" type="standard_car" route="left_in_to_bottom_out" depart="482.0" departLane="random" />
    <vehicle id="top_in_to_left_out_71" type="standard_car" route="top_in_to_left_out" depart="485.0" departLane="random" />
    <vehicles id="left_in_to_right_out_72" type="standard_car" route="left_in_to_right_out" depart="488.0" departLane="random" />
    <vehicles id="right_in_to_left_out_73" type="standard_car" route="right_in_to_left_out" depart="489.0" departLane="random" />
    <vehicles id="left_in_to_right_out_74" type="standard_car" route="left_in_to_right_out" depart="504.0" departLane="random" />
    <vehicles id="right_in_to_left_out_75" type="standard_car" route="right_in_to_left_out" depart="508.0" departLane="random" />
    <vehicles id="top_in_to_bottom_out_76" type="standard_car" route="top_in_to_bottom_out" depart="509.0" departLane="random" />
    <vehicles id="top_in_to_bottom_out_77" type="standard_car" route="top_in_to_bottom_out" depart="518.0" departLane="random" />
    <vehicles id="right_in_to_left_out_78" type="standard_car" route="right_in_to_left_out" depart="522.0" departLane="random" />
    <vehicles id="right_in_to_left_out_79" type="standard_car" route="right_in_to_left_out" depart="523.0" departLane="random" />
    <vehicles id="top_in_to_bottom_out_80" type="standard_car" route="top_in_to_bottom_out" depart="524.0" departLane="random" />
    <vehicle id="bottom_in_to_left_out_81" type="standard_car" route="bottom_in_to_left_out" depart="531.0" departLane="random" />
    <vehicles id="top_in_to_bottom_out_82" type="standard_car" route="top_in_to_bottom_out" depart="538.0" departLane="random" />
    <vehicles id="top_in_to_bottom_out_83" type="standard_car" route="top_in_to_bottom_out" depart="543.0" departLane="random" />
    <vehicle id="top_in_to_left_out_84" type="standard_car" route="top_in_to_left_out" depart="551.0" departLane="random" />
    <vehicles id="right_in_to_left_out_85" type="standard_car" route="right_in_to_left_out" depart="552.0" departLane="random" />
    <vehicles id="left_in_to_right_out_86" type="standard_car" route="left_in_to_right_out" depart="556.0" departLane="random" />
    <vehicle id="top_in_to_left_out_87" type="standard_car" route="top_in_to_left_out" depart="565.0" departLane="random" />
    <vehicle id="bottom_in_to_right_out_88" type="standard_car" route="bottom_in_to_right_out" depart="572.0" departLane="random" />
    <vehicle id="right_in_to_bottom_out_89" type="standard_car" route="right_in_to_bottom_out" depart="573.0" departLane="random" />
    <vehicles id="top_in_to_bottom_out_90" type="standard_car" route="top_in_to_bottom_out" depart="574.0" departLane="random" />
    <vehicles id="bottom_in_to_top_out_91" type="standard_car" route="bottom_in_to_top_out" depart="575.0" departLane="random" />
    <vehicles id="right_in_to_left_out_92" type="standard_car" route="right_in_to_left_out" depart="576.0" departLane="random" />
    <vehicles id="bottom_in_to_top_out_93" type="standard_car" route="bottom_in_to_top_out" depart="576.0" departLane="random" />
    <vehicles id="top_in_to_bottom_out_94" type="standard_car" route="top_in_to_bottom_out" depart="577.0" departLane="random" />
    <vehicles id="top_in_to_bottom_out_95" type="standard_car" route="top_in_to_bottom_out" depart="578.0" departLane="random" />
    <vehicles id="right_in_to_left_out_96" type="standard_car" route="right_in_to_left_out" depart="583.0" departLane="random" />
    <vehicles id="bottom_in_to_top_out_97" type="standard_car" route="bottom_in_to_top_out" depart="583.0" departLane="random" />
    <vehicles id="left_in_to_right_out_98" type="standard_car" route="left_in_to_right_out" depart="584.0" departLane="random" />
    <vehicle id="right_in_to_bottom_out_99" type="standard_car" route="right_in_to_bottom_out" depart="585.0" departLane="random" />
    <vehicles id="right_in_to_left_out_100" type="standard_car" route="right_in_to_left_out" depart="585.0" departLane="random" />
    <vehicles id="top_in_to_bottom_out_101" type="standard_car" route="top_in_to_bottom_out" depart="591.0" departLane="random" />
    <vehicles id="left_in_to_right_out_102" type="standard_car" route="left_in_to_right_out" depart="592.0" departLane="random" />
    <vehicle id="top_in_to_right_out_103" type="standard_car" route="top_in_to_right_out" depart="594.0" departLane="random" />
    <vehicles id="right_in_to_left_out_104" type="standard_car" route="right_in_to_left_out" depart="598.0" departLane="random" />
    <vehicle id="left_in_to_top_out_105" type="standard_car" route="left_in_to_top_out" depart="602.0" departLane="random" />
    <vehicle id="bottom_in_to_left_out_106" type="standard_car" route="bottom_in_to_left_out" depart="606.0" departLane="random" />
    <vehicle id="left_in_to_top_out_107" type="standard_car" route="left_in_to_top_out" depart="606.0" departLane="random" />
    <vehicles id="top_in_to_bottom_out_108" type="standard_car" route="top_in_to_bottom_out" depart="607.0" departLane="random" />
    <vehicles id="top_in_to_bottom_out_109" type="standard_car" route="top_in_to_bottom_out" depart="614.0" departLane="random" />
    <vehicles id="right_in_to_left_out_110" type="standard_car" route="right_in_to_left_out" depart="616.0" departLane="random" />
    <vehicle id="top_in_to_right_out_111" type="standard_car" route="top_in_to_right_out" depart="616.0" departLane="random" />
    <vehicle id="bottom_in_to_right_out_112" type="standard_car" route="bottom_in_to_right_out" depart="619.0" departLane="random" />
    <vehicles id="top_in_to_bottom_out_113" type="standard_car" route="top_in_to_bottom_out" depart="622.0" departLane="random" />
    <vehicles id="right_in_to_left_out_114" type="standard_car" route="right_in_to_left_out" depart="631.0" departLane="random" />
    <vehicle id="top_in_to_right_out_115" type="standard_car" route="top_in_to_right_out" depart="631.0" departLane="random" />
    <vehicle id="bottom_in_to_left_out_116" type="standard_car" route="bottom_in_to_left_out" depart="631.0" departLane="random" />
    <vehicle id="left_in_to_top_out_117" type="standard_car" route="left_in_to_top_out" depart="632.0" departLane="random" />
    <vehicles id="top_in_to_bottom_out_118" type="standard_car" route="top_in_to_bottom_out" depart="632.0" departLane="random" />
    <vehicle id="right_in_to_bottom_out_119" type="standard_car" route="right_in_to_bottom_out" depart="636.0" departLane="random" />
    <vehicle id="top_in_to_right_out_120" type="standard_car" route="top_in_to_right_out" depart="636.0" departLane="random" />
    <vehicle id="right_in_to_bottom_out_121" type="standard_car" route="right_in_to_bottom_out" depart="636.0" departLane="random" />
    <vehicles id="left_in_to_right_out_122" type="standard_car" route="left_in_to_right_out" depart="636.0" departLane="random" />
    <vehicle id="top_in_to_right_out_123" type="standard_car" route="top_in_to_right_out" depart="636.0" departLane="random" />
    <vehicle id="right_in_to_bottom_out_124" type="standard_car" route="right_in_to_bottom_out" depart="639.0" departLane="random" />
    <vehicle id="bottom_in_to_right_out_125" type="standard_car" route="bottom_in_to_right_out" depart="640.0" departLane="random" />
    <vehicle id="right_in_to_bottom_out_126" type="standard_car" route="right_in_to_bottom_out" depart="644.0" departLane="random" />
    <vehicle id="left_in_to_bottom_out_127" type="standard_car" route="left_in_to_bottom_out" depart="644.0" departLane="random" />
    <vehicles id="bottom_in_to_top_out_128" type="standard_car" route="bottom_in_to_top_out" depart="654.0" departLane="random" />
    <vehicles id="bottom_in_to_top_out_129" type="standard_car" route="bottom_in_to_top_out" depart="669.0" departLane="random" />
    <vehicles id="right_in_to_left_out_130" type="standard_car" route="right_in_to_left_out" depart="669.0" departLane="random" />
    <vehicles id="bottom_in_to_top_out_131" type="standard_car" route="bottom_in_to_top_out" depart="675.0" departLane="random" />
    <vehicles id="right_in_to_left_out_132" type="standard_car" route="right_in_to_left_out" depart="675.0" departLane="random" />
    <vehicles id="left_in_to_right_out_133" type="standard_car" route="left_in_to_right_out" depart="676.0" departLane="random" />
    <vehicle id="right_in_to_bottom_out_134" type="standard_car" route="right_in_to_bottom_out" depart="677.0" departLane="random" />
    <vehicle id="right_in_to_bottom_out_135" type="standard_car" route="right_in_to_bottom_out" depart="677.0" departLane="random" />
    <vehicle id="top_in_to_right_out_136" type="standard_car" route="top_in_to_right_out" depart="679.0" departLane="random" />
    <vehicles id="right_in_to_left_out_137" type="standard_car" route="right_in_to_left_out" depart="681.0" departLane="random" />
    <vehicle id="right_in_to_bottom_out_138" type="standard_car" route="right_in_to_bottom_out" depart="681.0" departLane="random" />
    <vehicle id="left_in_to_top_out_139" type="standard_car" route="left_in_to_top_out" depart="687.0" departLane="random" />
    <vehicles id="top_in_to_bottom_out_140" type="standard_car" route="top_in_to_bottom_out" depart="691.0" departLane="random" />
    <vehicle id="bottom_in_to_right_out_141" type="standard_car" route="bottom_in_to_right_out" depart="694.0" departLane="random" />
    <vehicles id="right_in_to_left_out_142" type="standard_car" route="right_in_to_left_out" depart="697.0" departLane="random" />
    <vehicle id="left_in_to_top_out_143" type="standard_car" route="left_in_to_top_out" depart="700.0" departLane="random" />
    <vehicles id="bottom_in_to_top_out_144" type="standard_car" route="bottom_in_to_top_out" depart="700.0" departLane="random" />
    <vehicle id="bottom_in_to_left_out_145" type="standard_car" route="bottom_in_to_left_out" depart="703.0" departLane="random" />
    <vehicles id="top_in_to_bottom_out_146" type="standard_car" route="top_in_to_bottom_out" depart="708.0" departLane="random" />
    <vehicles id="right_in_to_left_out_147" type="standard_car" route="right_in_to_left_out" depart="712.0" departLane="random" />
    <vehicle id="left_in_to_bottom_out_148" type="standard_car" route="left_in_to_bottom_out" depart="718.0" departLane="random" />
    <vehicles id="left_in_to_right_out_149" type="standard_car" route="left_in_to_right_out" depart="720.0" departLane="random" />
    <vehicles id="right_in_to_left_out_150" type="standard_car" route="right_in_to_left_out" depart="720.0" departLane="random" />
    <vehicles id="top_in_to_bottom_out_151" type="standard_car" route="top_in_to_bottom_out" depart="720.0" departLane="random" />
    <vehicles id="top_in_to_bottom_out_152" type="standard_car" route="top_in_to_bottom_out" depart="721.0" departLane="random" />
    <vehicles id="right_in_to_left_out_153" type="standard_car" route="right_in_to_left_out" depart="724.0" departLane="random" />
    <vehicles id="bottom_in_to_top_out_154" type="standard_car" route="bottom_in_to_top_out" depart="728.0" departLane="random" />
    <vehicles id="left_in_to_right_out_155" type="standard_car" route="left_in_to_right_out" depart="732.0" departLane="random" />
    <vehicles id="top_in_to_bottom_out_156" type="standard_car" route="top_in_to_bottom_out" depart="734.0" departLane="random" />
    <vehicles id="bottom_in_to_top_out_157" type="standard_car" route="bottom_in_to_top_out" depart="742.0" departLane="random" />
    <vehicles id="bottom_in_to_top_out_158" type="standard_car" route="bottom_in_to_top_out" depart="749.0" departLane="random" />
    <vehicles id="bottom_in_to_top_out_159" type="standard_car" route="bottom_in_to_top_out" depart="749.0" departLane="random" />
    <vehicles id="bottom_in_to_top_out_160" type="standard_car" route="bottom_in_to_top_out" depart="750.0" departLane="random" />
    <vehicle id="top_in_to_left_out_161" type="standard_car" route="top_in_to_left_out" depart="751.0" departLane="random" />
    <vehicles id="bottom_in_to_top_out_162" type="standard_car" route="bottom_in_to_top_out" depart="752.0" departLane="random" />
    <vehicles id="bottom_in_to_top_out_163" type="standard_car" route="bottom_in_to_top_out" depart="753.0" departLane="random" />
    <vehicles id="top_in_to_bottom_out_164" type="standard_car" route="top_in_to_bottom_out" depart="753.0" departLane="random" />
    <vehicles id="right_in_to_left_out_165" type="standard_car" route="right_in_to_left_out" depart="755.0" departLane="random" />
    <vehicles id="top_in_to_bottom_out_166" type="standard_car" route="top_in_to_bottom_out" depart="757.0" departLane="random" />
    <vehicle id="bottom_in_to_left_out_167" type="standard_car" route="bottom_in_to_left_out" depart="758.0" departLane="random" />
    <vehicles id="right_in_to_left_out_168" type="standard_car" route="right_in_to_left_out" depart="758.0" departLane="random" />
    <vehicle id="bottom_in_to_left_out_169" type="standard_car" route="bottom_in_to_left_out" depart="759.0" departLane="random" />
    <vehicles id="left_in_to_right_out_170" type="standard_car" route="left_in_to_right_out" depart="764.0" departLane="random" />
    <vehicle id="bottom_in_to_right_out_171" type="standard_car" route="bottom_in_to_right_out" depart="767.0" departLane="random" />
    <vehicle id="right_in_to_top_out_172" type="standard_car" route="right_in_to_top_out" depart="775.0" departLane="random" />
    <vehicles id="left_in_to_right_out_173" type="standard_car" route="left_in_to_right_out" depart="781.0" departLane="random" />
    <vehicle id="bottom_in_to_right_out_174" type="standard_car" route="bottom_in_to_right_out" depart="782.0" departLane="random" />
    <vehicles id="top_in_to_bottom_out_175" type="standard_car" route="top_in_to_bottom_out" depart="784.0" departLane="random" />
    <vehicle id="bottom_in_to_left_out_176" type="standard_car" route="bottom_in_to_left_out" depart="789.0" departLane="random" />
    <vehicle id="right_in_to_top_out_177" type="standard_car" route="right_in_to_top_out" depart="789.0" departLane="random" />
    <vehicles id="top_in_to_bottom_out_178" type="standard_car" route="top_in_to_bottom_out" depart="790.0" departLane="random" />
    <vehicles id="bottom_in_to_top_out_179" type="standard_car" route="bottom_in_to_top_out" depart="793.0" departLane="random" />
    <vehicles id="top_in_to_bottom_out_180" type="standard_car" route="top_in_to_bottom_out" depart="794.0" departLane="random" />
    <vehicle id="top_in_to_left_out_181" type="standard_car" route="top_in_to_left_out" depart="798.0" departLane="random" />
    <vehicles id="left_in_to_right_out_182" type="standard_car" route="left_in_to_right_out" depart="801.0" departLane="random" />
    <vehicles id="top_in_to_bottom_out_183" type="standard_car" route="top_in_to_bottom_out" depart="801.0" departLane="random" />
    <vehicle id="right_in_to_bottom_out_184" type="standard_car" route="right_in_to_bottom_out" depart="805.0" departLane="random" />
    <vehicles id="top_in_to_bottom_out_185" type="standard_car" route="top_in_to_bottom_out" depart="809.0" departLane="random" />
    <vehicles id="right_in_to_left_out_186" type="standard_car" route="right_in_to_left_out" depart="810.0" departLane="random" />
    <vehicles id="right_in_to_left_out_187" type="standard_car" route="right_in_to_left_out" depart="810.0" departLane="random" />
    <vehicles id="top_in_to_bottom_out_188" type="standard_car" route="top_in_to_bottom_out" depart="815.0" departLane="random" />
    <vehicles id="bottom_in_to_top_out_189" type="standard_car" route="bottom_in_to_top_out" depart="815.0" departLane="random" />
    <vehicle id="top_in_to_left_out_190" type="standard_car" route="top_in_to_left_out" depart="816.0" departLane="random" />
    <vehicle id="right_in_to_top_out_191" type="standard_car" route="right_in_to_top_out" depart="817.0" departLane="random" />
    <vehicles id="left_in_to_right_out_192" type="standard_car" route="left_in_to_right_out" depart="819.0" departLane="random" />
    <vehicles id="left_in_to_right_out_193" type="standard_car" route="left_in_to_right_out" depart="826.0" departLane="random" />
    <vehicle id="right_in_to_top_out_194" type="standard_car" route="right_in_to_top_out" depart="828.0" departLane="random" />
    <vehicles id="bottom_in_to_top_out_195" type="standard_car" route="bottom_in_to_top_out" depart="842.0" departLane="random" />
    <vehicles id="left_in_to_right_out_196" type="standard_car" route="left_in_to_right_out" depart="843.0" departLane="random" />
    <vehicles id="left_in_to_right_out_197" type="standard_car" route="left_in_to_right_out" depart="844.0" departLane="random" />
    <vehicles id="right_in_to_left_out_198" type="standard_car" route="right_in_to_left_out" depart="849.0" departLane="random" />
    <vehicle id="top_in_to_right_out_199" type="standard_car" route="top_in_to_right_out" depart="850.0" departLane="random" />
    <vehicle id="left_in_to_top_out_200" type="standard_car" route="left_in_to_top_out" depart="862.0" departLane="random" />
    <vehicle id="right_in_to_bottom_out_201" type="standard_car" route="right_in_to_bottom_out" depart="868.0" departLane="random" />
    <vehicle id="right_in_to_top_out_202" type="standard_car" route="right_in_to_top_out" depart="870.0" departLane="random" />
    <vehicles id="right_in_to_left_out_203" type="standard_car" route="right_in_to_left_out" depart="871.0" departLane="random" />
    <vehicle id="left_in_to_bottom_out_204" type="standard_car" route="left_in_to_bottom_out" depart="873.0" departLane="random" />
    <vehicle id="right_in_to_top_out_205" type="standard_car" route="right_in_to_top_out" depart="874.0" departLane="random" />
    <vehicle id="left_in_to_top_out_206" type="standard_car" route="left_in_to_top_out" depart="875.0" departLane="random" />
    <vehicles id="right_in_to_left_out_207" type="standard_car" route="right_in_to_left_out" depart="877.0" departLane="random" />
    <vehicles id="top_in_to_bottom_out_208" type="standard_car" route="top_in_to_bottom_out" depart="880.0" departLane="random" />
    <vehicles id="right_in_to_left_out_209" type="standard_car" route="right_in_to_left_out" depart="882.0" departLane="random" />
    <vehicle id="top_in_to_left_out_210" type="standard_car" route="top_in_to_left_out" depart="883.0" departLane="random" />
    <vehicle id="bottom_in_to_left_out_211" type="standard_car" route="bottom_in_to_left_out" depart="887.0" departLane="random" />
    <vehicle id="right_in_to_bottom_out_212" type="standard_car" route="right_in_to_bottom_out" depart="887.0" departLane="random" />
    <vehicles id="top_in_to_bottom_out_213" type="standard_car" route="top_in_to_bottom_out" depart="889.0" departLane="random" />
    <vehicles id="left_in_to_right_out_214" type="standard_car" route="left_in_to_right_out" depart="890.0" departLane="random" />
    <vehicle id="right_in_to_bottom_out_215" type="standard_car" route="right_in_to_bottom_out" depart="890.0" departLane="random" />
    <vehicle id="top_in_to_right_out_216" type="standard_car" route="top_in_to_right_out" depart="892.0" departLane="random" />
    <vehicles id="left_in_to_right_out_217" type="standard_car" route="left_in_to_right_out" depart="897.0" departLane="random" />
    <vehicles id="top_in_to_bottom_out_218" type="standard_car" route="top_in_to_bottom_out" depart="900.0" departLane="random" />
    <vehicles id="left_in_to_right_out_219" type="standard_car" route="left_in_to_right_out" depart="900.0" departLane="random" />
    <vehicles id="right_in_to_left_out_220" type="standard_car" route="right_in_to_left_out" depart="904.0" departLane="random" />
    <vehicles id="top_in_to_bottom_out_221" type="standard_car" route="top_in_to_bottom_out" depart="904.0" departLane="random" />
    <vehicles id="top_in_to_bottom_out_222" type="standard_car" route="top_in_to_bottom_out" depart="906.0" departLane="random" />