<?xml version="1.0" encoding="UTF-8"?>

<!-- generated on 2022-05-30 18:29:05 by Eclipse SUMO netedit Version 1.13.0
<configuration xmlns:xsi="http://www.w3.org/2001/XMLSchema-instance" xsi:noNamespaceSchemaLocation="http://sumo.dlr.de/xsd/netconvertConfiguration.xsd">

    <input>
        <sumo-net-file value="C:\Users\Lance\Desktop\All\Vito%20Cruz\VC.net.xml"/>
    </input>

    <output>
        <output-file value="C:\Users\Lance\Desktop\All\Vito%20Cruz\VC.net.xml"/>
    </output>

    <processing>
        <geometry.min-radius.fix.railways value="false"/>
        <geometry.max-grade.fix value="false"/>
        <offset.disable-normalization value="true"/>
        <lefthand value="false"/>
    </processing>

    <junctions>
        <no-turnarounds value="true"/>
        <junctions.corner-detail value="5"/>
        <junctions.limit-turn-speed value="5.5"/>
        <rectangular-lane-cut value="false"/>
    </junctions>

    <pedestrian>
        <walkingareas value="false"/>
    </pedestrian>

    <report>
        <aggregate-warnings value="5"/>
    </report>

</configuration>
-->

<net version="1.9" junctionCornerDetail="5" limitTurnSpeed="5.50" xmlns:xsi="http://www.w3.org/2001/XMLSchema-instance" xsi:noNamespaceSchemaLocation="http://sumo.dlr.de/xsd/net_file.xsd">

    <location netOffset="0.00,0.00" convBoundary="-4400.00,-3000.00,4500.00,40800.00" origBoundary="-10000000000.00,-10000000000.00,10000000000.00,10000000000.00" projParameter="!"/>

    <edge id=":J19_0" function="internal">
        <lane id=":J19_0_0" index="0" speed="16.67" length="27.20" shape="-114.40,6910.40 -114.40,6883.20"/>
        <lane id=":J19_0_1" index="1" speed="16.67" length="27.20" shape="-111.20,6910.40 -111.20,6883.20"/>
        <lane id=":J19_0_2" index="2" speed="16.67" length="27.20" shape="-108.00,6910.40 -108.00,6883.20"/>
        <lane id=":J19_0_3" index="3" speed="16.67" length="27.20" shape="-104.80,6910.40 -104.80,6883.20"/>
        <lane id=":J19_0_4" index="4" speed="16.67" length="27.20" shape="-101.60,6910.40 -101.60,6883.20"/>
    </edge>
    <edge id=":J19_5" function="internal">
        <lane id=":J19_5_0" index="0" speed="16.67" length="36.80" shape="-83.20,6904.80 -120.00,6904.80"/>
        <lane id=":J19_5_1" index="1" speed="16.67" length="36.80" shape="-83.20,6901.60 -120.00,6901.60"/>
    </edge>
    <edge id=":J19_7" function="internal">
        <lane id=":J19_7_0" index="0" speed="11.89" length="32.61" shape="-83.20,6901.60 -90.82,6899.84 -98.93,6895.38 -105.38,6889.43 -108.00,6883.20"/>
        <lane id=":J19_7_1" index="1" speed="11.49" length="30.37" shape="-83.20,6901.60 -90.32,6899.94 -97.33,6895.64 -102.67,6889.72 -104.80,6883.20"/>
        <lane id=":J19_7_2" index="2" speed="11.07" length="28.10" shape="-83.20,6901.60 -89.73,6899.94 -95.65,6895.65 -99.94,6889.73 -101.60,6883.20"/>
    </edge>
    <edge id=":J19_10" function="internal">
        <lane id=":J19_10_0" index="0" speed="16.67" length="27.20" shape="-88.80,6883.20 -88.80,6910.40"/>
        <lane id=":J19_10_1" index="1" speed="16.67" length="27.20" shape="-92.00,6883.20 -92.00,6910.40"/>
        <lane id=":J19_10_2" index="2" speed="16.67" length="27.20" shape="-95.20,6883.20 -95.20,6910.40"/>
        <lane id=":J19_10_3" index="3" speed="16.67" length="27.20" shape="-98.40,6883.20 -98.40,6910.40"/>
    </edge>
    <edge id=":J19_14" function="internal">
        <lane id=":J19_14_0" index="0" speed="16.67" length="37.47" shape="-120.00,6888.80 -107.78,6889.80 -98.35,6892.00 -90.54,6894.20 -83.20,6895.20"/>
        <lane id=":J19_14_1" index="1" speed="16.67" length="37.47" shape="-120.00,6892.00 -107.78,6893.00 -98.35,6895.20 -90.54,6897.40 -83.20,6898.40"/>
    </edge>
    <edge id=":J19_16" function="internal">
        <lane id=":J19_16_0" index="0" speed="12.44" length="35.78" shape="-120.00,6895.20 -111.38,6896.75 -101.07,6900.61 -92.43,6905.56 -88.80,6910.40"/>
        <lane id=":J19_16_1" index="1" speed="11.99" length="33.15" shape="-120.00,6895.20 -111.88,6896.68 -102.67,6900.41 -95.12,6905.34 -92.00,6910.40"/>
        <lane id=":J19_16_2" index="2" speed="11.20" length="28.83" shape="-120.00,6898.40 -112.38,6899.46 -104.27,6902.22 -97.83,6906.07 -95.20,6910.40"/>
        <lane id=":J19_16_3" index="3" speed="10.96" length="27.54" shape="-120.00,6898.40 -110.55,6899.15 -103.80,6901.40 -99.75,6905.15 -98.40,6910.40"/>
    </edge>

    <edge id="-E20" from="J21" to="J19" priority="-1" length="1000.00">
        <lane id="-E20_0" index="0" speed="16.67" length="1000.00" shape="3200.00,6904.80 -83.20,6904.80"/>
        <lane id="-E20_1" index="1" speed="16.67" length="1000.00" shape="3200.00,6901.60 -83.20,6901.60"/>
    </edge>
    <edge id="-E21" from="J22" to="J19" priority="-1" length="1000.00">
        <lane id="-E21_0" index="0" speed="16.67" length="1000.00" shape="-3100.00,6888.80 -120.00,6888.80"/>
        <lane id="-E21_1" index="1" speed="16.67" length="1000.00" shape="-3100.00,6892.00 -120.00,6892.00"/>
        <lane id="-E21_2" index="2" speed="16.67" length="1000.00" shape="-3100.00,6895.20 -120.00,6895.20"/>
        <lane id="-E21_3" index="3" speed="16.67" length="1000.00" shape="-3100.00,6898.40 -120.00,6898.40"/>
    </edge>
    <edge id="-E22" from="J23" to="J19" priority="-1" length="1000.00">
        <lane id="-E22_0" index="0" speed="16.67" length="1000.00" shape="-114.40,10200.00 -114.40,6910.40"/>
        <lane id="-E22_1" index="1" speed="16.67" length="1000.00" shape="-111.20,10200.00 -111.20,6910.40"/>
        <lane id="-E22_2" index="2" speed="16.67" length="1000.00" shape="-108.00,10200.00 -108.00,6910.40"/>
        <lane id="-E22_3" index="3" speed="16.67" length="1000.00" shape="-104.80,10200.00 -104.80,6910.40"/>
        <lane id="-E22_4" index="4" speed="16.67" length="1000.00" shape="-101.60,10200.00 -101.60,6910.40"/>
    </edge>
    <edge id="-E40" from="J19" to="J20" priority="-1" length="1000.00">
        <lane id="-E40_0" index="0" speed="16.67" length="1000.00" shape="-114.40,6883.20 -114.40,3000.00"/>
        <lane id="-E40_1" index="1" speed="16.67" length="1000.00" shape="-111.20,6883.20 -111.20,3000.00"/>
        <lane id="-E40_2" index="2" speed="16.67" length="1000.00" shape="-108.00,6883.20 -108.00,3000.00"/>
        <lane id="-E40_3" index="3" speed="16.67" length="1000.00" shape="-104.80,6883.20 -104.80,3000.00"/>
        <lane id="-E40_4" index="4" speed="16.67" length="1000.00" shape="-101.60,6883.20 -101.60,3000.00"/>
    </edge>
    <edge id="E20" from="J19" to="J21" priority="-1" length="1000.00">
        <lane id="E20_0" index="0" speed="16.67" length="1000.00" shape="-83.20,6895.20 3200.00,6895.20"/>
        <lane id="E20_1" index="1" speed="16.67" length="1000.00" shape="-83.20,6898.40 3200.00,6898.40"/>
    </edge>
    <edge id="E21" from="J19" to="J22" priority="-1" length="1000.00">
        <lane id="E21_0" index="0" speed="16.67" length="1000.00" shape="-120.00,6904.80 -3100.00,6904.80"/>
        <lane id="E21_1" index="1" speed="16.67" length="1000.00" shape="-120.00,6901.60 -3100.00,6901.60"/>
    </edge>
    <edge id="E22" from="J19" to="J23" priority="-1" length="1000.00">
        <lane id="E22_0" index="0" speed="16.67" length="1000.00" shape="-88.80,6910.40 -88.80,10200.00"/>
        <lane id="E22_1" index="1" speed="16.67" length="1000.00" shape="-92.00,6910.40 -92.00,10200.00"/>
        <lane id="E22_2" index="2" speed="16.67" length="1000.00" shape="-95.20,6910.40 -95.20,10200.00"/>
        <lane id="E22_3" index="3" speed="16.67" length="1000.00" shape="-98.40,6910.40 -98.40,10200.00"/>
    </edge>
    <edge id="E40" from="J20" to="J19" priority="-1" length="1000.00">
        <lane id="E40_0" index="0" speed="16.67" length="1000.00" shape="-88.80,3000.00 -88.80,6883.20"/>
        <lane id="E40_1" index="1" speed="16.67" length="1000.00" shape="-92.00,3000.00 -92.00,6883.20"/>
        <lane id="E40_2" index="2" speed="16.67" length="1000.00" shape="-95.20,3000.00 -95.20,6883.20"/>
        <lane id="E40_3" index="3" speed="16.67" length="1000.00" shape="-98.40,3000.00 -98.40,6883.20"/>
    </edge>

    <tlLogic id="J19" type="static" programID="0" offset="0">
        <phase duration="10" state="GGGGGrrrrrGGGGrrrrrr"/>
        <phase duration="5"  state="yyyyyrrrrryyyyrrrrrr"/>
        <phase duration="10" state="rrrrrGGGGGrrrrrrrrrr"/>
        <phase duration="5"  state="rrrrryyyyyrrrrrrrrrr"/>
        <phase duration="10" state="rrrrrrrrrrrrrrGGGGGG"/>
        <phase duration="5"  state="rrrrrrrrrrrrrryyyyyy"/>
    </tlLogic>

    <junction id="J10" type="dead_end" x="-3100.00" y="-1400.00" incLanes="" intLanes="" shape="-3100.00,-1400.00"/>
    <junction id="J11" type="dead_end" x="-100.00" y="-3000.00" incLanes="" intLanes="" shape="-100.00,-3000.00"/>
    <junction id="J14" type="dead_end" x="4500.00" y="32000.00" incLanes="" intLanes="" shape="4500.00,32000.00"/>
    <junction id="J16" type="dead_end" x="3000.00" y="2500.00" incLanes="" intLanes="" shape="3000.00,2500.00"/>
    <junction id="J17" type="dead_end" x="-3100.00" y="2500.00" incLanes="" intLanes="" shape="-3100.00,2500.00"/>
    <junction id="J19" type="traffic_light" x="-100.00" y="6900.00" incLanes="-E22_0 -E22_1 -E22_2 -E22_3 -E22_4 -E20_0 -E20_1 E40_0 E40_1 E40_2 E40_3 -E21_0 -E21_1 -E21_2 -E21_3" intLanes=":J19_0_0 :J19_0_1 :J19_0_2 :J19_0_3 :J19_0_4 :J19_5_0 :J19_5_1 :J19_7_0 :J19_7_1 :J19_7_2 :J19_10_0 :J19_10_1 :J19_10_2 :J19_10_3 :J19_14_0 :J19_14_1 :J19_16_0 :J19_16_1 :J19_16_2 :J19_16_3" shape="-116.00,6910.40 -87.20,6910.40 -86.76,6908.18 -86.20,6907.40 -85.42,6906.84 -84.42,6906.51 -83.20,6906.40 -83.20,6893.60 -85.42,6892.44 -86.20,6891.00 -86.76,6888.98 -87.09,6886.38 -87.20,6883.20 -116.00,6883.20 -116.44,6885.42 -117.00,6886.20 -117.78,6886.76 -118.78,6887.09 -120.00,6887.20 -120.00,6906.40 -117.78,6906.84 -117.00,6907.40 -116.44,6908.18 -116.11,6909.18">
        <request index="0"  response="00000000000000000000" foes="11111100001111100000" cont="0"/>
        <request index="1"  response="00000000000000000000" foes="11111100001111100000" cont="0"/>
        <request index="2"  response="00000000000000000000" foes="11111100001111100000" cont="0"/>
        <request index="3"  response="00000000000000000000" foes="11111100001111100000" cont="0"/>
        <request index="4"  response="00000000000000000000" foes="11111100001111100000" cont="0"/>
        <request index="5"  response="00000011110000011111" foes="11110011110000011111" cont="0"/>
        <request index="6"  response="00000011110000011111" foes="11110011110000011111" cont="0"/>
        <request index="7"  response="00001111110000011111" foes="00001111110000011111" cont="0"/>
        <request index="8"  response="00001111110000011111" foes="00001111110000011111" cont="0"/>
        <request index="9"  response="00001111110000011111" foes="00001111110000011111" cont="0"/>
        <request index="10" response="00000000000000000000" foes="11111100001111100000" cont="0"/>
        <request index="11" response="00000000000000000000" foes="11111100001111100000" cont="0"/>
        <request index="12" response="00000000000000000000" foes="11111100001111100000" cont="0"/>
        <request index="13" response="00000000000000000000" foes="11111100001111100000" cont="0"/>
        <request index="14" response="00000011110000011111" foes="00000011111110011111" cont="0"/>
        <request index="15" response="00000011110000011111" foes="00000011111110011111" cont="0"/>
        <request index="16" response="00000011110001111111" foes="00000011110001111111" cont="0"/>
        <request index="17" response="00000011110001111111" foes="00000011110001111111" cont="0"/>
        <request index="18" response="00000011110001111111" foes="00000011110001111111" cont="0"/>
        <request index="19" response="00000011110001111111" foes="00000011110001111111" cont="0"/>
    </junction>
    <junction id="J20" type="dead_end" x="-100.00" y="3000.00" incLanes="-E40_0 -E40_1 -E40_2 -E40_3 -E40_4" intLanes="" shape="-100.00,3000.00 -116.00,3000.00 -100.00,3000.00"/>
    <junction id="J21" type="dead_end" x="3200.00" y="6900.00" incLanes="E20_0 E20_1" intLanes="" shape="3200.00,6900.00 3200.00,6893.60 3200.00,6900.00"/>
    <junction id="J22" type="dead_end" x="-3100.00" y="6900.00" incLanes="E21_0 E21_1" intLanes="" shape="-3100.00,6900.00 -3100.00,6906.40 -3100.00,6900.00"/>
    <junction id="J23" type="dead_end" x="-100.00" y="10200.00" incLanes="E22_0 E22_1 E22_2 E22_3" intLanes="" shape="-100.00,10200.00 -87.20,10200.00 -100.00,10200.00"/>
    <junction id="J26" type="dead_end" x="-3900.00" y="10200.00" incLanes="" intLanes="" shape="-3900.00,10200.00"/>
    <junction id="J27" type="dead_end" x="-100.00" y="13300.00" incLanes="" intLanes="" shape="-100.00,13300.00"/>
    <junction id="J28" type="dead_end" x="4300.00" y="38000.00" incLanes="" intLanes="" shape="4300.00,38000.00"/>
    <junction id="J32" type="dead_end" x="3000.00" y="10200.00" incLanes="" intLanes="" shape="3000.00,10200.00"/>
    <junction id="J36" type="dead_end" x="3000.00" y="24200.00" incLanes="" intLanes="" shape="3000.00,24200.00"/>
    <junction id="J37" type="dead_end" x="-3400.00" y="24200.00" incLanes="" intLanes="" shape="-3400.00,24200.00"/>
    <junction id="J38" type="dead_end" x="-100.00" y="28600.00" incLanes="" intLanes="" shape="-100.00,28600.00"/>
    <junction id="J39" type="dead_end" x="-100.00" y="40800.00" incLanes="" intLanes="" shape="-100.00,40800.00"/>
    <junction id="J40" type="dead_end" x="-4400.00" y="38000.00" incLanes="" intLanes="" shape="-4400.00,38000.00"/>
    <junction id="J42" type="dead_end" x="-100.00" y="3000.00" incLanes="" intLanes="" shape="-100.00,3000.00"/>
    <junction id="J8" type="dead_end" x="3000.00" y="-1400.00" incLanes="" intLanes="" shape="3000.00,-1400.00"/>

    <connection from="-E20" to="E21" fromLane="0" toLane="0" via=":J19_5_0" tl="J19" linkIndex="5" dir="s" state="o"/>
    <connection from="-E20" to="E21" fromLane="1" toLane="1" via=":J19_5_1" tl="J19" linkIndex="6" dir="s" state="o"/>
    <connection from="-E20" to="-E40" fromLane="1" toLane="2" via=":J19_7_0" tl="J19" linkIndex="7" dir="l" state="o"/>
    <connection from="-E20" to="-E40" fromLane="1" toLane="3" via=":J19_7_1" tl="J19" linkIndex="8" dir="l" state="o"/>
    <connection from="-E20" to="-E40" fromLane="1" toLane="4" via=":J19_7_2" tl="J19" linkIndex="9" dir="l" state="o"/>
    <connection from="-E21" to="E20" fromLane="0" toLane="0" via=":J19_14_0" tl="J19" linkIndex="14" dir="s" state="o"/>
    <connection from="-E21" to="E20" fromLane="1" toLane="1" via=":J19_14_1" tl="J19" linkIndex="15" dir="s" state="o"/>
    <connection from="-E21" to="E22" fromLane="2" toLane="0" via=":J19_16_0" tl="J19" linkIndex="16" dir="l" state="o"/>
    <connection from="-E21" to="E22" fromLane="2" toLane="1" via=":J19_16_1" tl="J19" linkIndex="17" dir="l" state="o"/>
    <connection from="-E21" to="E22" fromLane="3" toLane="2" via=":J19_16_2" tl="J19" linkIndex="18" dir="l" state="o"/>
    <connection from="-E21" to="E22" fromLane="3" toLane="3" via=":J19_16_3" tl="J19" linkIndex="19" dir="l" state="o"/>
    <connection from="-E22" to="-E40" fromLane="0" toLane="0" via=":J19_0_0" tl="J19" linkIndex="0" dir="s" state="O"/>
    <connection from="-E22" to="-E40" fromLane="1" toLane="1" via=":J19_0_1" tl="J19" linkIndex="1" dir="s" state="O"/>
    <connection from="-E22" to="-E40" fromLane="2" toLane="2" via=":J19_0_2" tl="J19" linkIndex="2" dir="s" state="O"/>
    <connection from="-E22" to="-E40" fromLane="3" toLane="3" via=":J19_0_3" tl="J19" linkIndex="3" dir="s" state="O"/>
    <connection from="-E22" to="-E40" fromLane="4" toLane="4" via=":J19_0_4" tl="J19" linkIndex="4" dir="s" state="O"/>
    <connection from="E40" to="E22" fromLane="0" toLane="0" via=":J19_10_0" tl="J19" linkIndex="10" dir="s" state="O"/>
    <connection from="E40" to="E22" fromLane="1" toLane="1" via=":J19_10_1" tl="J19" linkIndex="11" dir="s" state="O"/>
    <connection from="E40" to="E22" fromLane="2" toLane="2" via=":J19_10_2" tl="J19" linkIndex="12" dir="s" state="O"/>
    <connection from="E40" to="E22" fromLane="3" toLane="3" via=":J19_10_3" tl="J19" linkIndex="13" dir="s" state="O"/>

    <connection from=":J19_0" to="-E40" fromLane="0" toLane="0" dir="s" state="M"/>
    <connection from=":J19_0" to="-E40" fromLane="1" toLane="1" dir="s" state="M"/>
    <connection from=":J19_0" to="-E40" fromLane="2" toLane="2" dir="s" state="M"/>
    <connection from=":J19_0" to="-E40" fromLane="3" toLane="3" dir="s" state="M"/>
    <connection from=":J19_0" to="-E40" fromLane="4" toLane="4" dir="s" state="M"/>
    <connection from=":J19_5" to="E21" fromLane="0" toLane="0" dir="s" state="M"/>
    <connection from=":J19_5" to="E21" fromLane="1" toLane="1" dir="s" state="M"/>
    <connection from=":J19_7" to="-E40" fromLane="0" toLane="2" dir="l" state="M"/>
    <connection from=":J19_7" to="-E40" fromLane="1" toLane="3" dir="l" state="M"/>
    <connection from=":J19_7" to="-E40" fromLane="2" toLane="4" dir="l" state="M"/>
    <connection from=":J19_10" to="E22" fromLane="0" toLane="0" dir="s" state="M"/>
    <connection from=":J19_10" to="E22" fromLane="1" toLane="1" dir="s" state="M"/>
    <connection from=":J19_10" to="E22" fromLane="2" toLane="2" dir="s" state="M"/>
    <connection from=":J19_10" to="E22" fromLane="3" toLane="3" dir="s" state="M"/>
    <connection from=":J19_14" to="E20" fromLane="0" toLane="0" dir="s" state="M"/>
    <connection from=":J19_14" to="E20" fromLane="1" toLane="1" dir="s" state="M"/>
    <connection from=":J19_16" to="E22" fromLane="0" toLane="0" dir="l" state="M"/>
    <connection from=":J19_16" to="E22" fromLane="1" toLane="1" dir="l" state="M"/>
    <connection from=":J19_16" to="E22" fromLane="2" toLane="2" dir="l" state="M"/>
    <connection from=":J19_16" to="E22" fromLane="3" toLane="3" dir="l" state="M"/>

</net>
