<routes>
    <vType accel="0.8" id="standard_car" decel="4.5" length="5.0" minGap="2.5" maxSpeed="16.67" sigma="0.5" />
    
    <route id="-E20_to_E21" edges="-E20 E21" />
    <route id="-E20_to_-E40" edges="-E20 -E40" />
    <route id="-E21_to_E20" edges="-E21 E20" />
    <route id="-E21_to_E22" edges="-E21 E22" />
    <route id="-E22_to_-E40" edges="-E22 -E40" />
    <route id="E40_to_E22" edges="E40 E22" />
    <vehicles id="-E22_to_-E40_0" type="standard_car" route="-E22_to_-E40" depart="28.0" departLane="random" />
    <vehicles id="-E21_to_E20_1" type="standard_car" route="-E21_to_E20" depart="45.0" departLane="random" />
    <vehicle id="-E20_to_-E40_2" type="standard_car" route="-E20_to_-E40" depart="62.0" departLane="random" />
    <vehicles id="-E22_to_-E40_3" type="standard_car" route="-E22_to_-E40" depart="75.0" departLane="random" />
    <vehicles id="-E22_to_-E40_4" type="standard_car" route="-E22_to_-E40" depart="82.0" departLane="random" />
    <vehicles id="-E22_to_-E40_5" type="standard_car" route="-E22_to_-E40" depart="86.0" departLane="random" />
    <vehicle id="-E21_to_E22_6" type="standard_car" route="-E21_to_E22" depart="107.0" departLane="random" />
    <vehicles id="-E21_to_E20_7" type="standard_car" route="-E21_to_E20" depart="129.0" departLane="random" />
    <vehicles id="-E20_to_E21_8" type="standard_car" route="-E20_to_E21" depart="130.0" departLane="random" />
    <vehicles id="E40_to_E22_9" type="standard_car" route="E40_to_E22" depart="132.0" departLane="random" />
    <vehicles id="-E20_to_E21_10" type="standard_car" route="-E20_to_E21" depart="133.0" departLane="random" />
    <vehicle id="-E20_to_-E40_11" type="standard_car" route="-E20_to_-E40" depart="139.0" departLane="random" />
    <vehicles id="E40_to_E22_12" type="standard_car" route="E40_to_E22" depart="150.0" departLane="random" />
    <vehicles id="-E20_to_E21_13" type="standard_car" route="-E20_to_E21" depart="154.0" departLane="random" />
    <vehicle id="-E20_to_-E40_14" type="standard_car" route="-E20_to_-E40" depart="154.0" departLane="random" />
    <vehicles id="-E22_to_-E40_15" type="standard_car" route="-E22_to_-E40" depart="157.0" departLane="random" />
    <vehicle id="-E20_to_-E40_16" type="standard_car" route="-E20_to_-E40" depart="164.0" departLane="random" />
    <vehicle id="-E21_to_E22_17" type="standard_car" route="-E21_to_E22" depart="165.0" departLane="random" />
    <vehicles id="-E21_to_E20_18" type="standard_car" route="-E21_to_E20" depart="167.0" departLane="random" />
    <vehicles id="-E22_to_-E40_19" type="standard_car" route="-E22_to_-E40" depart="167.0" departLane="random" />
    <vehicles id="-E20_to_E21_20" type="standard_car" route="-E20_to_E21" depart="171.0" departLane="random" />
    <vehicles id="-E22_to_-E40_21" type="standard_car" route="-E22_to_-E40" depart="172.0" departLane="random" />
    <vehicle id="-E20_to_-E40_22" type="standard_car" route="-E20_to_-E40" depart="173.0" departLane="random" />
    <vehicles id="E40_to_E22_23" type="standard_car" route="E40_to_E22" depart="188.0" departLane="random" />
    <vehicles id="-E22_to_-E40_24" type="standard_car" route="-E22_to_-E40" depart="190.0" departLane="random" />
    <vehicles id="-E21_to_E20_25" type="standard_car" route="-E21_to_E20" depart="193.0" departLane="random" />
    <vehicles id="-E21_to_E20_26" type="standard_car" route="-E21_to_E20" depart="206.0" departLane="random" />
    <vehicles id="-E21_to_E20_27" type="standard_car" route="-E21_to_E20" depart="207.0" departLane="random" />
    <vehicle id="-E21_to_E22_28" type="standard_car" route="-E21_to_E22" depart="209.0" departLane="random" />
    <vehicles id="-E22_to_-E40_29" type="standard_car" route="-E22_to_-E40" depart="210.0" departLane="random" />
    <vehicles id="E40_to_E22_30" type="standard_car" route="E40_to_E22" depart="216.0" departLane="random" />
    <vehicles id="-E20_to_E21_31" type="standard_car" route="-E20_to_E21" depart="220.0" departLane="random" />
    <vehicles id="-E21_to_E20_32" type="standard_car" route="-E21_to_E20" depart="221.0" departLane="random" />
    <vehicles id="E40_to_E22_33" type="standard_car" route="E40_to_E22" depart="228.0" departLane="random" />
    <vehicles id="-E22_to_-E40_34" type="standard_car" route="-E22_to_-E40" depart="230.0" departLane="random" />
    <vehicles id="-E20_to_E21_35" type="standard_car" route="-E20_to_E21" depart="238.0" departLane="random" />
    <vehicle id="-E20_to_-E40_36" type="standard_car" route="-E20_to_-E40" depart="240.0" departLane="random" />
    <vehicles id="-E20_to_E21_37" type="standard_car" route="-E20_to_E21" depart="241.0" departLane="random" />
    <vehicle id="-E21_to_E22_38" type="standard_car" route="-E21_to_E22" depart="242.0" departLane="random" />
    <vehicles id="E40_to_E22_39" type="standard_car" route="E40_to_E22" depart="251.0" departLane="random" />
    <vehicle id="-E20_to_-E40_40" type="standard_car" route="-E20_to_-E40" depart="256.0" departLane="random" />
    <vehicle id="-E21_to_E22_41" type="standard_car" route="-E21_to_E22" depart="260.0" departLane="random" />
    <vehicles id="-E22_to_-E40_42" type="standard_car" route="-E22_to_-E40" depart="263.0" departLane="random" />
    <vehicle id="-E21_to_E22_43" type="standard_car" route="-E21_to_E22" depart="268.0" departLane="random" />
    <vehicles id="-E21_to_E20_44" type="standard_car" route="-E21_to_E20" depart="270.0" departLane="random" />
    <vehicle id="-E21_to_E22_45" type="standard_car" route="-E21_to_E22" depart="281.0" departLane="random" />
    <vehicles id="-E20_to_E21_46" type="standard_car" route="-E20_to_E21" depart="284.0" departLane="random" />
    <vehicle id="-E20_to_-E40_47" type="standard_car" route="-E20_to_-E40" depart="286.0" departLane="random" />
    <vehicles id="-E20_to_E21_48" type="standard_car" route="-E20_to_E21" depart="290.0" departLane="random" />
    <vehicle id="-E20_to_-E40_49" type="standard_car" route="-E20_to_-E40" depart="290.0" departLane="random" />
    <vehicles id="-E22_to_-E40_50" type="standard_car" route="-E22_to_-E40" depart="293.0" departLane="random" />
    <vehicle id="-E20_to_-E40_51" type="standard_car" route="-E20_to_-E40" depart="294.0" departLane="random" />
    <vehicle id="-E20_to_-E40_52" type="standard_car" route="-E20_to_-E40" depart="295.0" departLane="random" />
    <vehicles id="E40_to_E22_53" type="standard_car" route="E40_to_E22" depart="297.0" departLane="random" />
    <vehicle id="-E20_to_-E40_54" type="standard_car" route="-E20_to_-E40" depart="298.0" departLane="random" />
    <vehicles id="-E20_to_E21_55" type="standard_car" route="-E20_to_E21" depart="299.0" departLane="random" />
    <vehicle id="-E20_to_-E40_56" type="standard_car" route="-E20_to_-E40" depart="301.0" departLane="random" />
    <vehicle id="-E20_to_-E40_57" type="standard_car" route="-E20_to_-E40" depart="305.0" departLane="random" />
    <vehicle id="-E20_to_-E40_58" type="standard_car" route="-E20_to_-E40" depart="305.0" departLane="random" />
    <vehicles id="-E22_to_-E40_59" type="standard_car" route="-E22_to_-E40" depart="307.0" departLane="random" />
    <vehicles id="E40_to_E22_60" type="standard_car" route="E40_to_E22" depart="307.0" departLane="random" />
    <vehicle id="-E21_to_E22_61" type="standard_car" route="-E21_to_E22" depart="309.0" departLane="random" />
    <vehicle id="-E20_to_-E40_62" type="standard_car" route="-E20_to_-E40" depart="309.0" departLane="random" />
    <vehicles id="E40_to_E22_63" type="standard_car" route="E40_to_E22" depart="312.0" departLane="random" />
    <vehicles id="E40_to_E22_64" type="standard_car" route="E40_to_E22" depart="313.0" departLane="random" />
    <vehicle id="-E20_to_-E40_65" type="standard_car" route="-E20_to_-E40" depart="314.0" departLane="random" />
    <vehicles id="-E21_to_E20_66" type="standard_car" route="-E21_to_E20" depart="317.0" departLane="random" />
    <vehicles id="-E20_to_E21_67" type="standard_car" route="-E20_to_E21" depart="319.0" departLane="random" />
    <vehicles id="-E22_to_-E40_68" type="standard_car" route="-E22_to_-E40" depart="321.0" departLane="random" />
    <vehicle id="-E20_to_-E40_69" type="standard_car" route="-E20_to_-E40" depart="321.0" departLane="random" />
    <vehicle id="-E20_to_-E40_70" type="standard_car" route="-E20_to_-E40" depart="321.0" departLane="random" />
    <vehicle id="-E20_to_-E40_71" type="standard_car" route="-E20_to_-E40" depart="323.0" departLane="random" />
    <vehicles id="-E21_to_E20_72" type="standard_car" route="-E21_to_E20" depart="325.0" departLane="random" />
    <vehicles id="-E22_to_-E40_73" type="standard_car" route="-E22_to_-E40" depart="326.0" departLane="random" />
    <vehicles id="-E21_to_E20_74" type="standard_car" route="-E21_to_E20" depart="336.0" departLane="random" />
    <vehicles id="-E22_to_-E40_75" type="standard_car" route="-E22_to_-E40" depart="338.0" departLane="random" />
    <vehicles id="E40_to_E22_76" type="standard_car" route="E40_to_E22" depart="340.0" departLane="random" />
    <vehicles id="E40_to_E22_77" type="standard_car" route="E40_to_E22" depart="345.0" departLane="random" />
    <vehicles id="-E22_to_-E40_78" type="standard_car" route="-E22_to_-E40" depart="348.0" departLane="random" />
    <vehicles id="-E22_to_-E40_79" type="standard_car" route="-E22_to_-E40" depart="349.0" departLane="random" />
    <vehicles id="E40_to_E22_80" type="standard_car" route="E40_to_E22" depart="350.0" departLane="random" />
    <vehicle id="-E21_to_E22_81" type="standard_car" route="-E21_to_E22" depart="354.0" departLane="random" />
    <vehicles id="E40_to_E22_82" type="standard_car" route="E40_to_E22" depart="358.0" departLane="random" />
    <vehicles id="E40_to_E22_83" type="standard_car" route="E40_to_E22" depart="362.0" departLane="random" />
    <vehicle id="-E20_to_-E40_84" type="standard_car" route="-E20_to_-E40" depart="367.0" departLane="random" />
    <vehicles id="-E22_to_-E40_85" type="standard_car" route="-E22_to_-E40" depart="368.0" departLane="random" />
    <vehicles id="-E21_to_E20_86" type="standard_car" route="-E21_to_E20" depart="370.0" departLane="random" />
    <vehicle id="-E20_to_-E40_87" type="standard_car" route="-E20_to_-E40" depart="377.0" departLane="random" />
    <vehicle id="-E20_to_-E40_88" type="standard_car" route="-E20_to_-E40" depart="381.0" departLane="random" />
    <vehicle id="-E21_to_E22_89" type="standard_car" route="-E21_to_E22" depart="382.0" departLane="random" />
    <vehicles id="E40_to_E22_90" type="standard_car" route="E40_to_E22" depart="383.0" departLane="random" />
    <vehicles id="-E20_to_E21_91" type="standard_car" route="-E20_to_E21" depart="384.0" departLane="random" />
    <vehicles id="-E22_to_-E40_92" type="standard_car" route="-E22_to_-E40" depart="384.0" departLane="random" />
    <vehicles id="-E20_to_E21_93" type="standard_car" route="-E20_to_E21" depart="384.0" departLane="random" />
    <vehicles id="E40_to_E22_94" type="standard_car" route="E40_to_E22" depart="385.0" departLane="random" />
    <vehicles id="E40_to_E22_95" type="standard_car" route="E40_to_E22" depart="385.0" departLane="random" />
    <vehicles id="-E22_to_-E40_96" type="standard_car" route="-E22_to_-E40" depart="389.0" departLane="random" />
    <vehicles id="-E20_to_E21_97" type="standard_car" route="-E20_to_E21" depart="389.0" departLane="random" />
    <vehicles id="-E21_to_E20_98" type="standard_car" route="-E21_to_E20" depart="390.0" departLane="random" />
    <vehicle id="-E21_to_E22_99" type="standard_car" route="-E21_to_E22" depart="390.0" departLane="random" />
    <vehicles id="-E22_to_-E40_100" type="standard_car" route="-E22_to_-E40" depart="390.0" departLane="random" />
    <vehicles id="E40_to_E22_101" type="standard_car" route="E40_to_E22" depart="394.0" departLane="random" />
    <vehicles id="-E21_to_E20_102" type="standard_car" route="-E21_to_E20" depart="394.0" departLane="random" />
    <vehicle id="-E21_to_E22_103" type="standard_car" route="-E21_to_E22" depart="396.0" departLane="random" />
    <vehicles id="-E22_to_-E40_104" type="standard_car" route="-E22_to_-E40" depart="399.0" departLane="random" />
    <vehicle id="-E21_to_E22_105" type="standard_car" route="-E21_to_E22" depart="401.0" departLane="random" />
    <vehicle id="-E21_to_E22_106" type="standard_car" route="-E21_to_E22" depart="404.0" departLane="random" />
    <vehicle id="-E21_to_E22_107" type="standard_car" route="-E21_to_E22" depart="404.0" departLane="random" />
    <vehicles id="E40_to_E22_108" type="standard_car" route="E40_to_E22" depart="405.0" departLane="random" />
    <vehicles id="E40_to_E22_109" type="standard_car" route="E40_to_E22" depart="409.0" departLane="random" />
    <vehicles id="-E22_to_-E40_110" type="standard_car" route="-E22_to_-E40" depart="410.0" departLane="random" />
    <vehicle id="-E21_to_E22_111" type="standard_car" route="-E21_to_E22" depart="411.0" departLane="random" />
    <vehicle id="-E20_to_-E40_112" type="standard_car" route="-E20_to_-E40" depart="413.0" departLane="random" />
    <vehicles id="E40_to_E22_113" type="standard_car" route="E40_to_E22" depart="414.0" departLane="random" />
    <vehicles id="-E22_to_-E40_114" type="standard_car" route="-E22_to_-E40" depart="420.0" departLane="random" />
    <vehicle id="-E21_to_E22_115" type="standard_car" route="-E21_to_E22" depart="421.0" departLane="random" />
    <vehicle id="-E21_to_E22_116" type="standard_car" route="-E21_to_E22" depart="421.0" departLane="random" />
    <vehicle id="-E21_to_E22_117" type="standard_car" route="-E21_to_E22" depart="421.0" departLane="random" />
    <vehicles id="E40_to_E22_118" type="standard_car" route="E40_to_E22" depart="421.0" departLane="random" />
    <vehicle id="-E21_to_E22_119" type="standard_car" route="-E21_to_E22" depart="424.0" departLane="random" />
    <vehicle id="-E21_to_E22_120" type="standard_car" route="-E21_to_E22" depart="424.0" departLane="random" />
    <vehicle id="-E21_to_E22_121" type="standard_car" route="-E21_to_E22" depart="424.0" departLane="random" />
    <vehicles id="-E21_to_E20_122" type="standard_car" route="-E21_to_E20" depart="424.0" departLane="random" />
    <vehicle id="-E21_to_E22_123" type="standard_car" route="-E21_to_E22" depart="424.0" departLane="random" />
    <vehicle id="-E21_to_E22_124" type="standard_car" route="-E21_to_E22" depart="426.0" departLane="random" />
    <vehicle id="-E20_to_-E40_125" type="standard_car" route="-E20_to_-E40" depart="427.0" departLane="random" />
    <vehicle id="-E21_to_E22_126" type="standard_car" route="-E21_to_E22" depart="429.0" departLane="random" />
    <vehicle id="-E20_to_-E40_127" type="standard_car" route="-E20_to_-E40" depart="429.0" departLane="random" />
    <vehicles id="-E20_to_E21_128" type="standard_car" route="-E20_to_E21" depart="436.0" departLane="random" />
    <vehicles id="-E20_to_E21_129" type="standard_car" route="-E20_to_E21" depart="446.0" departLane="random" />
    <vehicles id="-E22_to_-E40_130" type="standard_car" route="-E22_to_-E40" depart="446.0" departLane="random" />
    <vehicles id="-E20_to_E21_131" type="standard_car" route="-E20_to_E21" depart="450.0" departLane="random" />
    <vehicles id="-E22_to_-E40_132" type="standard_car" route="-E22_to_-E40" depart="450.0" departLane="random" />
    <vehicles id="-E21_to_E20_133" type="standard_car" route="-E21_to_E20" depart="451.0" departLane="random" />
    <vehicle id="-E21_to_E22_134" type="standard_car" route="-E21_to_E22" depart="451.0" departLane="random" />
    <vehicle id="-E21_to_E22_135" type="standard_car" route="-E21_to_E22" depart="452.0" departLane="random" />
    <vehicle id="-E21_to_E22_136" type="standard_car" route="-E21_to_E22" depart="452.0" departLane="random" />
    <vehicles id="-E22_to_-E40_137" type="standard_car" route="-E22_to_-E40" depart="454.0" departLane="random" />
    <vehicle id="-E21_to_E22_138" type="standard_car" route="-E21_to_E22" depart="454.0" departLane="random" />
    <vehicle id="-E21_to_E22_139" type="standard_car" route="-E21_to_E22" depart="458.0" departLane="random" />
    <vehicles id="E40_to_E22_140" type="standard_car" route="E40_to_E22" depart="460.0" departLane="random" />
    <vehicle id="-E20_to_-E40_141" type="standard_car" route="-E20_to_-E40" depart="463.0" departLane="random" />
    <vehicles id="-E22_to_-E40_142" type="standard_car" route="-E22_to_-E40" depart="464.0" departLane="random" />
    <vehicle id="-E21_to_E22_143" type="standard_car" route="-E21_to_E22" depart="467.0" departLane="random" />
    <vehicles id="-E20_to_E21_144" type="standard_car" route="-E20_to_E21" depart="467.0" departLane="random" />
    <vehicle id="-E21_to_E22_145" type="standard_car" route="-E21_to_E22" depart="469.0" departLane="random" />
    <vehicles id="E40_to_E22_146" type="standard_car" route="E40_to_E22" depart="472.0" departLane="random" />
    <vehicles id="-E22_to_-E40_147" type="standard_car" route="-E22_to_-E40" depart="475.0" departLane="random" />
    <vehicle id="-E20_to_-E40_148" type="standard_car" route="-E20_to_-E40" depart="478.0" departLane="random" />
    <vehicles id="-E21_to_E20_149" type="standard_car" route="-E21_to_E20" depart="480.0" departLane="random" />
    <vehicles id="-E22_to_-E40_150" type="standard_car" route="-E22_to_-E40" depart="480.0" departLane="random" />
    <vehicles id="E40_to_E22_151" type="standard_car" route="E40_to_E22" depart="480.0" departLane="random" />
    <vehicles id="E40_to_E22_152" type="standard_car" route="E40_to_E22" depart="481.0" departLane="random" />
    <vehicles id="-E22_to_-E40_153" type="standard_car" route="-E22_to_-E40" depart="483.0" departLane="random" />
    <vehicles id="-E20_to_E21_154" type="standard_car" route="-E20_to_E21" depart="485.0" departLane="random" />
    <vehicles id="-E21_to_E20_155" type="standard_car" route="-E21_to_E20" depart="488.0" departLane="random" />
    <vehicles id="E40_to_E22_156" type="standard_car" route="E40_to_E22" depart="490.0" departLane="random" />
    <vehicles id="-E20_to_E21_157" type="standard_car" route="-E20_to_E21" depart="495.0" departLane="random" />
    <vehicles id="-E20_to_E21_158" type="standard_car" route="-E20_to_E21" depart="499.0" departLane="random" />
    <vehicles id="-E20_to_E21_159" type="standard_car" route="-E20_to_E21" depart="500.0" departLane="random" />
    <vehicles id="-E20_to_E21_160" type="standard_car" route="-E20_to_E21" depart="500.0" departLane="random" />
    <vehicle id="-E20_to_-E40_161" type="standard_car" route="-E20_to_-E40" depart="501.0" departLane="random" />
    <vehicles id="-E20_to_E21_162" type="standard_car" route="-E20_to_E21" depart="501.0" departLane="random" />
    <vehicles id="-E20_to_E21_163" type="standard_car" route="-E20_to_E21" depart="502.0" departLane="random" />
    <vehicles id="E40_to_E22_164" type="standard_car" route="E40_to_E22" depart="502.0" departLane="random" />
    <vehicles id="-E22_to_-E40_165" type="standard_car" route="-E22_to_-E40" depart="503.0" departLane="random" />
    <vehicles id="E40_to_E22_166" type="standard_car" route="E40_to_E22" depart="505.0" departLane="random" />
    <vehicle id="-E21_to_E22_167" type="standard_car" route="-E21_to_E22" depart="505.0" departLane="random" />
    <vehicles id="-E22_to_-E40_168" type="standard_car" route="-E22_to_-E40" depart="505.0" departLane="random" />
    <vehicle id="-E21_to_E22_169" type="standard_car" route="-E21_to_E22" depart="506.0" departLane="random" />
    <vehicles id="-E21_to_E20_170" type="standard_car" route="-E21_to_E20" depart="509.0" departLane="random" />
    <vehicle id="-E20_to_-E40_171" type="standard_car" route="-E20_to_-E40" depart="511.0" departLane="random" />
    <vehicle id="-E20_to_-E40_172" type="standard_car" route="-E20_to_-E40" depart="516.0" departLane="random" />
    <vehicles id="-E21_to_E20_173" type="standard_car" route="-E21_to_E20" depart="521.0" departLane="random" />
    <vehicle id="-E20_to_-E40_174" type="standard_car" route="-E20_to_-E40" depart="521.0" departLane="random" />
    <vehicles id="E40_to_E22_175" type="standard_car" route="E40_to_E22" depart="523.0" departLane="random" />
    <vehicle id="-E21_to_E22_176" type="standard_car" route="-E21_to_E22" depart="526.0" departLane="random" />
    <vehicle id="-E20_to_-E40_177" type="standard_car" route="-E20_to_-E40" depart="526.0" departLane="random" />
    <vehicles id="E40_to_E22_178" type="standard_car" route="E40_to_E22" depart="527.0" departLane="random" />
    <vehicles id="-E20_to_E21_179" type="standard_car" route="-E20_to_E21" depart="529.0" departLane="random" />
    <vehicles id="E40_to_E22_180" type="standard_car" route="E40_to_E22" depart="530.0" departLane="random" />
    <vehicle id="-E20_to_-E40_181" type="standard_car" route="-E20_to_-E40" depart="532.0" departLane="random" />
    <vehicles id="-E21_to_E20_182" type="standard_car" route="-E21_to_E20" depart="534.0" departLane="random" />
    <vehicles id="E40_to_E22_183" type="standard_car" route="E40_to_E22" depart="534.0" departLane="random" />
    <vehicle id="-E21_to_E22_184" type="standard_car" route="-E21_to_E22" depart="536.0" departLane="random" />
    <vehicles id="E40_to_E22_185" type="standard_car" route="E40_to_E22" depart="540.0" departLane="random" />
    <vehicles id="-E22_to_-E40_186" type="standard_car" route="-E22_to_-E40" depart="540.0" departLane="random" />
    <vehicles id="-E22_to_-E40_187" type="standard_car" route="-E22_to_-E40" depart="540.0" departLane="random" />
    <vehicles id="E40_to_E22_188" type="standard_car" route="E40_to_E22" depart="543.0" departLane="random" />
    <vehicles id="-E20_to_E21_189" type="standard_car" route="-E20_to_E21" depart="544.0" departLane="random" />
    <vehicle id="-E20_to_-E40_190" type="standard_car" route="-E20_to_-E40" depart="544.0" departLane="random" />
    <vehicle id="-E20_to_-E40_191" type="standard_car" route="-E20_to_-E40" depart="545.0" departLane="random" />
    <vehicles id="-E21_to_E20_192" type="standard_car" route="-E21_to_E20" depart="546.0" departLane="random" />
    <vehicles id="-E21_to_E20_193" type="standard_car" route="-E21_to_E20" depart="551.0" departLane="random" />
    <vehicle id="-E20_to_-E40_194" type="standard_car" route="-E20_to_-E40" depart="552.0" departLane="random" />
    <vehicles id="-E20_to_E21_195" type="standard_car" route="-E20_to_E21" depart="561.0" departLane="random" />
    <vehicles id="-E21_to_E20_196" type="standard_car" route="-E21_to_E20" depart="562.0" departLane="random" />
    <vehicles id="-E21_to_E20_197" type="standard_car" route="-E21_to_E20" depart="562.0" departLane="random" />
    <vehicles id="-E22_to_-E40_198" type="standard_car" route="-E22_to_-E40" depart="566.0" departLane="random" />
    <vehicle id="-E21_to_E22_199" type="standard_car" route="-E21_to_E22" depart="567.0" departLane="random" />
    <vehicle id="-E21_to_E22_200" type="standard_car" route="-E21_to_E22" depart="575.0" departLane="random" />
    <vehicle id="-E21_to_E22_201" type="standard_car" route="-E21_to_E22" depart="579.0" departLane="random" />
    <vehicle id="-E20_to_-E40_202" type="standard_car" route="-E20_to_-E40" depart="580.0" departLane="random" />
    <vehicles id="-E22_to_-E40_203" type="standard_car" route="-E22_to_-E40" depart="581.0" departLane="random" />
    <vehicle id="-E20_to_-E40_204" type="standard_car" route="-E20_to_-E40" depart="582.0" departLane="random" />
    <vehicle id="-E20_to_-E40_205" type="standard_car" route="-E20_to_-E40" depart="582.0" departLane="random" />
    <vehicle id="-E21_to_E22_206" type="standard_car" route="-E21_to_E22" depart="583.0" departLane="random" />
    <vehicles id="-E22_to_-E40_207" type="standard_car" route="-E22_to_-E40" depart="585.0" departLane="random" />
    <vehicles id="E40_to_E22_208" type="standard_car" route="E40_to_E22" depart="586.0" departLane="random" />
    <vehicles id="-E22_to_-E40_209" type="standard_car" route="-E22_to_-E40" depart="588.0" departLane="random" />
    <vehicle id="-E20_to_-E40_210" type="standard_car" route="-E20_to_-E40" depart="589.0" departLane="random" />
    <vehicle id="-E21_to_E22_211" type="standard_car" route="-E21_to_E22" depart="591.0" departLane="random" />
    <vehicle id="-E21_to_E22_212" type="standard_car" route="-E21_to_E22" depart="591.0" departLane="random" />
    <vehicles id="E40_to_E22_213" type="standard_car" route="E40_to_E22" depart="593.0" departLane="random" />
    <vehicles id="-E21_to_E20_214" type="standard_car" route="-E21_to_E20" depart="593.0" departLane="random" />
    <vehicle id="-E21_to_E22_215" type="standard_car" route="-E21_to_E22" depart="593.0" departLane="random" />
    <vehicle id="-E21_to_E22_216" type="standard_car" route="-E21_to_E22" depart="595.0" departLane="random" />
    <vehicles id="-E21_to_E20_217" type="standard_car" route="-E21_to_E20" depart="598.0" departLane="random" />
    <vehicles id="E40_to_E22_218" type="standard_car" route="E40_to_E22" depart="600.0" departLane="random" />
    <vehicles id="-E21_to_E20_219" type="standard_car" route="-E21_to_E20" depart="600.0" departLane="random" />
    <vehicles id="-E22_to_-E40_220" type="standard_car" route="-E22_to_-E40" depart="603.0" departLane="random" />
    <vehicles id="E40_to_E22_221" type="standard_car" route="E40_to_E22" depart="603.0" departLane="random" />
    <vehicles id="E40_to_E22_222" type="standard_car" route="E40_to_E22" depart="604.0" departLane="random" />
    <vehicles id="-E20_to_E21_223" type="standard_car" route="-E20_to_E21" depart="605.0" departLane="random" />
    <vehicle id="-E21_to_E22_224" type="standard_car" route="-E21_to_E22" depart="609.0" departLane="random" />
    <vehicles id="-E21_to_E20_225" type="standard_car" route="-E21_to_E20" depart="610.0" departLane="random" />
    <vehicles id="E40_to_E22_226" type="standard_car" route="E40_to_E22" depart="610.0" departLane="random" />
    <vehicles id="E40_to_E22_227" type="standard_car" route="E40_to_E22" depart="611.0" departLane="random" />
    <vehicle id="-E21_to_E22_228" type="standard_car" route="-E21_to_E22" depart="613.0" departLane="random" />
    <vehicles id="-E22_to_-E40_229" type="standard_car" route="-E22_to_-E40" depart="616.0" departLane="random" />
    <vehicle id="-E21_to_E22_230" type="standard_car" route="-E21_to_E22" depart="617.0" departLane="random" />
    <vehicles id="-E22_to_-E40_231" type="standard_car" route="-E22_to_-E40" depart="617.0" departLane="random" />
    <vehicles id="-E22_to_-E40_232" type="standard_car" route="-E22_to_-E40" depart="618.0" departLane="random" />
    <vehicles id="E40_to_E22_233" type="standard_car" route="E40_to_E22" depart="619.0" departLane="random" />
    <vehicles id="-E20_to_E21_234" type="standard_car" route="-E20_to_E21" depart="625.0" departLane="random" />
    <vehicle id="-E21_to_E22_235" type="standard_car" route="-E21_to_E22" depart="625.0" departLane="random" />
    <vehicles id="-E21_to_E20_236" type="standard_car" route="-E21_to_E20" depart="625.0" departLane="random" />
    <vehicles id="-E20_to_E21_237" type="standard_car" route="-E20_to_E21" depart="626.0" departLane="random" />
    <vehicles id="-E20_to_E21_238" type="standard_car" route="-E20_to_E21" depart="629.0" departLane="random" />
    <vehicles id="-E21_to_E20_239" type="standard_car" route="-E21_to_E20" depart="630.0" departLane="random" />
    <vehicle id="-E20_to_-E40_240" type="standard_car" route="-E20_to_-E40" depart="631.0" departLane="random" />
    <vehicle id="-E20_to_-E40_241" type="standard_car" route="-E20_to_-E40" depart="631.0" departLane="random" />
    <vehicles id="-E22_to_-E40_242" type="standard_car" route="-E22_to_-E40" depart="632.0" departLane="random" />
    <vehicle id="-E20_to_-E40_243" type="standard_car" route="-E20_to_-E40" depart="632.0" departLane="random" />
    <vehicle id="-E21_to_E22_244" type="standard_car" route="-E21_to_E22" depart="635.0" departLane="random" />
    <vehicle id="-E20_to_-E40_245" type="standard_car" route="-E20_to_-E40" depart="636.0" departLane="random" />
    <vehicle id="-E21_to_E22_246" type="standard_car" route="-E21_to_E22" depart="637.0" departLane="random" />
    <vehicle id="-E20_to_-E40_247" type="standard_car" route="-E20_to_-E40" depart="638.0" departLane="random" />
    <vehicle id="-E20_to_-E40_248" type="standard_car" route="-E20_to_-E40" depart="638.0" departLane="random" />
    <vehicle id="-E21_to_E22_249" type="standard_car" route="-E21_to_E22" depart="640.0" departLane="random" />
    <vehicle id="-E20_to_-E40_250" type="standard_car" route="-E20_to_-E40" depart="640.0" departLane="random" />
    <vehicles id="E40_to_E22_251" type="standard_car" route="E40_to_E22" depart="641.0" departLane="random" />
    <vehicles id="-E20_to_E21_252" type="standard_car" route="-E20_to_E21" depart="642.0" departLane="random" />
    <vehicles id="-E20_to_E21_253" type="standard_car" route="-E20_to_E21" depart="643.0" departLane="random" />
    <vehicles id="E40_to_E22_254" type="standard_car" route="E40_to_E22" depart="644.0" departLane="random" />
    <vehicles id="-E21_to_E20_255" type="standard_car" route="-E21_to_E20" depart="647.0" departLane="random" />
    <vehicles id="-E20_to_E21_256" type="standard_car" route="-E20_to_E21" depart="648.0" departLane="random" />
    <vehicle id="-E21_to_E22_257" type="standard_car" route="-E21_to_E22" depart="649.0" departLane="random" />
    <vehicles id="-E20_to_E21_258" type="standard_car" route="-E20_to_E21" depart="649.0" departLane="random" />
    <vehicle id="-E20_to_-E40_259" type="standard_car" route="-E20_to_-E40" depart="649.0" departLane="random" />
    <vehicles id="-E21_to_E20_260" type="standard_car" route="-E21_to_E20" depart="650.0" departLane="random" />
    <vehicle id="-E21_to_E22_261" type="standard_car" route="-E21_to_E22" depart="654.0" departLane="random" />