<?xml version="1.0" encoding="UTF-8"?>

<!-- generated on 2022-05-31 22:18:28 by Eclipse SUMO netedit Version 1.13.0
<configuration xmlns:xsi="http://www.w3.org/2001/XMLSchema-instance" xsi:noNamespaceSchemaLocation="http://sumo.dlr.de/xsd/netconvertConfiguration.xsd">

    <input>
        <sumo-net-file value="C:\Users\Lance\Desktop\All\Roxas%20Blvd%20Scratch\Roxas.net.xml"/>
    </input>

    <output>
        <output-file value="C:\Users\Lance\Desktop\All\Roxas%20Blvd%20Scratch\Roxas.net.xml"/>
    </output>

    <processing>
        <geometry.min-radius.fix.railways value="false"/>
        <geometry.max-grade.fix value="false"/>
        <offset.disable-normalization value="true"/>
        <lefthand value="false"/>
    </processing>

    <junctions>
        <no-turnarounds value="true"/>
        <junctions.corner-detail value="5"/>
        <junctions.limit-turn-speed value="5.5"/>
        <rectangular-lane-cut value="false"/>
    </junctions>

    <pedestrian>
        <walkingareas value="false"/>
    </pedestrian>

    <report>
        <aggregate-warnings value="5"/>
    </report>

</configuration>
-->

<net version="1.9" junctionCornerDetail="5" limitTurnSpeed="5.50" xmlns:xsi="http://www.w3.org/2001/XMLSchema-instance" xsi:noNamespaceSchemaLocation="http://sumo.dlr.de/xsd/net_file.xsd">

    <location netOffset="0.00,0.00" convBoundary="-4400.00,-3000.00,4500.00,40800.00" origBoundary="-10000000000.00,-10000000000.00,10000000000.00,10000000000.00" projParameter="!"/>

    <edge id=":J0_0" function="internal">
        <lane id=":J0_0_0" index="0" speed="16.67" length="11.32" shape="-114.40,-196.00 -114.40,-207.20"/>
        <lane id=":J0_0_1" index="1" speed="16.67" length="11.32" shape="-111.20,-196.00 -111.20,-207.20"/>
        <lane id=":J0_0_2" index="2" speed="16.67" length="11.32" shape="-108.00,-196.00 -108.00,-207.20"/>
        <lane id=":J0_0_3" index="3" speed="16.67" length="11.32" shape="-104.80,-196.00 -104.80,-207.20"/>
        <lane id=":J0_0_4" index="4" speed="16.67" length="11.32" shape="-104.80,-196.00 -104.30,-199.39 -103.20,-201.60 -102.10,-203.81 -101.60,-207.20"/>
    </edge>
    <edge id=":J0_5" function="internal">
        <lane id=":J0_5_0" index="0" speed="11.35" length="1.49" shape="-101.60,-196.00 -100.73,-197.21"/>
    </edge>
    <edge id=":J0_14" function="internal">
        <lane id=":J0_14_0" index="0" speed="11.35" length="28.12" shape="-100.73,-197.21 -99.85,-198.45 -94.60,-200.20 -85.85,-201.25 -73.60,-201.60"/>
    </edge>
    <edge id=":J0_6" function="internal">
        <lane id=":J0_6_0" index="0" speed="6.51" length="9.03" shape="-79.20,-207.20 -78.85,-204.75 -77.80,-203.00 -76.05,-201.95 -73.60,-201.60"/>
    </edge>
    <edge id=":J0_7" function="internal">
        <lane id=":J0_7_0" index="0" speed="16.67" length="11.20" shape="-79.20,-207.20 -79.20,-196.00"/>
        <lane id=":J0_7_1" index="1" speed="16.67" length="11.20" shape="-82.40,-207.20 -82.40,-196.00"/>
        <lane id=":J0_7_2" index="2" speed="16.67" length="11.20" shape="-85.60,-207.20 -85.60,-196.00"/>
        <lane id=":J0_7_3" index="3" speed="16.67" length="11.20" shape="-88.80,-207.20 -88.80,-196.00"/>
        <lane id=":J0_7_4" index="4" speed="16.67" length="11.20" shape="-92.00,-207.20 -92.00,-196.00"/>
        <lane id=":J0_7_5" index="5" speed="16.67" length="11.20" shape="-95.20,-207.20 -95.20,-196.00"/>
        <lane id=":J0_7_6" index="6" speed="16.67" length="11.20" shape="-98.40,-207.20 -98.40,-196.00"/>
    </edge>
    <edge id=":J1_0" function="internal">
        <lane id=":J1_0_0" index="0" speed="16.67" length="17.60" shape="-114.40,213.60 -114.40,196.00"/>
        <lane id=":J1_0_1" index="1" speed="16.67" length="17.60" shape="-111.20,213.60 -111.20,196.00"/>
        <lane id=":J1_0_2" index="2" speed="16.67" length="17.60" shape="-108.00,213.60 -108.00,196.00"/>
        <lane id=":J1_0_3" index="3" speed="16.67" length="17.60" shape="-104.80,213.60 -104.80,196.00"/>
    </edge>
    <edge id=":J1_4" function="internal">
        <lane id=":J1_4_0" index="0" speed="7.61" length="25.70" shape="-104.80,213.60 -100.00,206.40 -95.20,204.00 -90.40,206.40 -85.60,213.60"/>
        <lane id=":J1_4_1" index="1" speed="7.00" length="25.70" shape="-104.80,213.60 -100.80,207.60 -96.80,205.60 -92.80,207.60 -88.80,213.60"/>
    </edge>
    <edge id=":J1_6" function="internal">
        <lane id=":J1_6_0" index="0" speed="16.67" length="17.60" shape="-101.60,213.60 -101.60,196.00"/>
    </edge>
    <edge id=":J1_7" function="internal">
        <lane id=":J1_7_0" index="0" speed="5.58" length="9.35" shape="-101.60,213.60 -99.20,210.00 -96.80,208.80 -94.40,210.00 -92.00,213.60"/>
        <lane id=":J1_7_1" index="1" speed="4.72" length="9.35" shape="-101.60,213.60 -100.00,211.20 -98.40,210.40 -96.80,211.20 -95.20,213.60"/>
        <lane id=":J1_7_2" index="2" speed="3.65" length="9.35" shape="-101.60,213.60 -100.80,212.40 -100.00,212.00 -99.20,212.40 -98.40,213.60"/>
    </edge>
    <edge id=":J1_10" function="internal">
        <lane id=":J1_10_0" index="0" speed="6.51" length="9.03" shape="-73.60,208.00 -76.05,208.35 -77.80,209.40 -78.85,211.15 -79.20,213.60"/>
        <lane id=":J1_10_1" index="1" speed="8.00" length="14.19" shape="-73.60,204.80 -77.45,205.35 -80.20,207.00 -81.85,209.75 -82.40,213.60"/>
        <lane id=":J1_10_2" index="2" speed="8.67" length="16.85" shape="-73.60,204.80 -78.85,205.35 -82.60,207.00 -84.85,209.75 -85.60,213.60"/>
        <lane id=":J1_10_3" index="3" speed="9.32" length="19.63" shape="-73.60,204.80 -80.25,205.35 -85.00,207.00 -87.85,209.75 -88.80,213.60"/>
        <lane id=":J1_10_4" index="4" speed="9.94" length="22.48" shape="-73.60,204.80 -81.65,205.35 -87.40,207.00 -90.85,209.75 -92.00,213.60"/>
        <lane id=":J1_10_5" index="5" speed="10.54" length="25.39" shape="-73.60,204.80 -83.05,205.35 -89.80,207.00 -93.85,209.75 -95.20,213.60"/>
        <lane id=":J1_10_6" index="6" speed="11.11" length="28.34" shape="-73.60,204.80 -84.45,205.35 -92.20,207.00 -96.85,209.75 -98.40,213.60"/>
    </edge>
    <edge id=":J1_17" function="internal">
        <lane id=":J1_17_0" index="0" speed="12.96" length="38.91" shape="-73.60,201.60 -90.05,201.25 -101.80,200.20 -108.85,198.45 -111.20,196.00"/>
        <lane id=":J1_17_1" index="1" speed="12.44" length="35.80" shape="-73.60,201.60 -88.65,201.25 -99.40,200.20 -105.85,198.45 -108.00,196.00"/>
        <lane id=":J1_17_2" index="2" speed="11.91" length="32.70" shape="-73.60,201.60 -87.25,201.25 -97.00,200.20 -102.85,198.45 -104.80,196.00"/>
        <lane id=":J1_17_3" index="3" speed="11.35" length="29.61" shape="-73.60,201.60 -85.85,201.25 -94.60,200.20 -99.85,198.45 -101.60,196.00"/>
    </edge>
    <edge id=":J1_21" function="internal">
        <lane id=":J1_21_0" index="0" speed="16.67" length="17.60" shape="-79.20,196.00 -79.20,213.60"/>
        <lane id=":J1_21_1" index="1" speed="16.67" length="17.60" shape="-82.40,196.00 -82.40,213.60"/>
        <lane id=":J1_21_2" index="2" speed="16.67" length="17.60" shape="-85.60,196.00 -85.60,213.60"/>
        <lane id=":J1_21_3" index="3" speed="16.67" length="17.60" shape="-88.80,196.00 -88.80,213.60"/>
        <lane id=":J1_21_4" index="4" speed="16.67" length="17.60" shape="-92.00,196.00 -92.00,213.60"/>
        <lane id=":J1_21_5" index="5" speed="16.67" length="17.60" shape="-95.20,196.00 -95.20,213.60"/>
        <lane id=":J1_21_6" index="6" speed="16.67" length="17.60" shape="-98.40,196.00 -98.40,213.60"/>
    </edge>
    <edge id=":J12_0" function="internal">
        <lane id=":J12_0_0" index="0" speed="6.99" length="4.77" shape="-74.20,-1365.31 -75.03,-1364.42 -75.63,-1363.42 -75.98,-1362.31 -76.10,-1361.10"/>
        <lane id=":J12_0_1" index="1" speed="8.62" length="7.49" shape="-76.31,-1367.71 -77.62,-1366.31 -78.56,-1364.74 -79.12,-1363.00 -79.30,-1361.09"/>
        <lane id=":J12_0_2" index="2" speed="9.99" length="10.21" shape="-78.42,-1370.11 -80.21,-1368.21 -81.48,-1366.07 -82.25,-1363.69 -82.50,-1361.09"/>
        <lane id=":J12_0_3" index="3" speed="11.19" length="12.94" shape="-80.53,-1372.52 -82.80,-1370.10 -84.41,-1367.39 -85.38,-1364.39 -85.70,-1361.09"/>
    </edge>
    <edge id=":J12_4" function="internal">
        <lane id=":J12_4_0" index="0" speed="15.28" length="9.47" shape="-88.87,-1370.54 -88.90,-1361.09"/>
        <lane id=":J12_4_1" index="1" speed="15.28" length="9.47" shape="-92.07,-1370.55 -92.10,-1361.09"/>
        <lane id=":J12_4_2" index="2" speed="15.28" length="9.47" shape="-95.27,-1370.56 -95.30,-1361.08"/>
        <lane id=":J12_4_3" index="3" speed="15.28" length="9.47" shape="-98.47,-1370.57 -98.50,-1361.08"/>
    </edge>
    <edge id=":J13_0" function="internal">
        <lane id=":J13_0_0" index="0" speed="13.21" length="14.19" shape="-41.33,-1392.33 -45.20,-1391.73 -47.49,-1390.08 -49.46,-1387.59 -52.38,-1384.47"/>
    </edge>
    <edge id=":J13_1" function="internal">
        <lane id=":J13_1_0" index="0" speed="15.28" length="18.85" shape="-41.33,-1395.53 -60.16,-1395.47"/>
        <lane id=":J13_1_1" index="1" speed="15.28" length="18.85" shape="-41.33,-1398.73 -60.18,-1398.67"/>
    </edge>
    <edge id=":J15_0" function="internal">
        <lane id=":J15_0_0" index="0" speed="15.28" length="33.60" shape="-111.20,38016.80 -111.20,37983.20"/>
        <lane id=":J15_0_1" index="1" speed="15.28" length="33.60" shape="-108.00,38016.80 -108.00,37983.20"/>
        <lane id=":J15_0_2" index="2" speed="15.28" length="33.60" shape="-104.80,38016.80 -104.80,37983.20"/>
    </edge>
    <edge id=":J15_3" function="internal">
        <lane id=":J15_3_0" index="0" speed="12.76" length="37.73" shape="-101.60,38016.80 -100.45,38004.55 -97.00,37995.80 -91.25,37990.55 -83.20,37988.80"/>
        <lane id=":J15_3_1" index="1" speed="12.30" length="34.99" shape="-101.60,38016.80 -100.45,38005.95 -97.00,37998.20 -91.25,37993.55 -83.20,37992.00"/>
        <lane id=":J15_3_2" index="2" speed="11.84" length="32.30" shape="-101.60,38016.80 -100.45,38007.35 -97.00,38000.60 -91.25,37996.55 -83.20,37995.20"/>
        <lane id=":J15_3_3" index="3" speed="11.36" length="29.67" shape="-101.60,38016.80 -100.45,38008.75 -97.00,38003.00 -91.25,37999.55 -83.20,37998.40"/>
    </edge>
    <edge id=":J15_7" function="internal">
        <lane id=":J15_7_0" index="0" speed="7.33" length="11.73" shape="-83.20,38008.00 -85.65,38008.55 -87.40,38010.20 -88.45,38012.95 -88.80,38016.80"/>
        <lane id=":J15_7_1" index="1" speed="8.00" length="14.19" shape="-83.20,38008.00 -87.05,38008.55 -89.80,38010.20 -91.45,38012.95 -92.00,38016.80"/>
    </edge>
    <edge id=":J15_9" function="internal">
        <lane id=":J15_9_0" index="0" speed="16.67" length="33.75" shape="-83.20,38008.00 -92.40,38008.50 -99.30,38009.60 -106.54,38010.70 -116.80,38011.20"/>
        <lane id=":J15_9_1" index="1" speed="16.67" length="33.75" shape="-83.20,38004.80 -92.40,38005.30 -99.30,38006.40 -106.54,38007.50 -116.80,38008.00"/>
        <lane id=":J15_9_2" index="2" speed="16.67" length="33.75" shape="-83.20,38001.60 -92.40,38002.10 -99.30,38003.20 -106.54,38004.30 -116.80,38004.80"/>
        <lane id=":J15_9_3" index="3" speed="16.67" length="33.75" shape="-83.20,38001.60 -116.80,38001.60"/>
    </edge>
    <edge id=":J15_13" function="internal">
        <lane id=":J15_13_0" index="0" speed="11.49" length="30.37" shape="-83.20,38001.60 -90.32,37999.94 -97.33,37995.64 -102.67,37989.72 -104.80,37983.20"/>
        <lane id=":J15_13_1" index="1" speed="11.36" length="29.67" shape="-83.20,38001.60 -91.25,38000.45 -97.00,37997.00 -100.45,37991.25 -101.60,37983.20"/>
    </edge>
    <edge id=":J15_15" function="internal">
        <lane id=":J15_15_0" index="0" speed="15.28" length="33.60" shape="-88.80,37983.20 -88.80,38016.80"/>
        <lane id=":J15_15_1" index="1" speed="15.28" length="33.60" shape="-92.00,37983.20 -92.00,38016.80"/>
        <lane id=":J15_15_2" index="2" speed="15.28" length="33.60" shape="-95.20,37983.20 -95.20,38016.80"/>
    </edge>
    <edge id=":J15_18" function="internal">
        <lane id=":J15_18_0" index="0" speed="12.76" length="37.73" shape="-98.40,37983.20 -99.55,37995.45 -103.00,38004.20 -108.75,38009.45 -116.80,38011.20"/>
        <lane id=":J15_18_1" index="1" speed="12.30" length="34.99" shape="-98.40,37983.20 -99.55,37994.05 -103.00,38001.80 -108.75,38006.45 -116.80,38008.00"/>
        <lane id=":J15_18_2" index="2" speed="11.84" length="32.30" shape="-98.40,37983.20 -99.55,37992.65 -103.00,37999.40 -108.75,38003.45 -116.80,38004.80"/>
        <lane id=":J15_18_3" index="3" speed="11.36" length="29.67" shape="-98.40,37983.20 -99.55,37991.25 -103.00,37997.00 -108.75,38000.45 -116.80,38001.60"/>
    </edge>
    <edge id=":J15_22" function="internal">
        <lane id=":J15_22_0" index="0" speed="6.51" length="9.03" shape="-116.80,37988.80 -114.35,37988.45 -112.60,37987.40 -111.55,37985.65 -111.20,37983.20"/>
    </edge>
    <edge id=":J15_23" function="internal">
        <lane id=":J15_23_0" index="0" speed="15.28" length="33.67" shape="-116.80,37992.00 -83.20,37992.00"/>
        <lane id=":J15_23_1" index="1" speed="15.28" length="33.67" shape="-116.80,37995.20 -83.20,37995.20"/>
        <lane id=":J15_23_2" index="2" speed="15.28" length="33.67" shape="-116.80,37995.20 -106.80,37995.70 -100.00,37996.80 -93.20,37997.90 -83.20,37998.40"/>
    </edge>
    <edge id=":J15_26" function="internal">
        <lane id=":J15_26_0" index="0" speed="12.64" length="36.97" shape="-116.80,37995.20 -108.67,37997.43 -99.47,38002.95 -91.92,38009.99 -88.80,38016.80"/>
        <lane id=":J15_26_1" index="1" speed="12.72" length="37.45" shape="-116.80,37995.20 -105.95,37996.55 -98.20,38000.60 -93.55,38007.35 -92.00,38016.80"/>
        <lane id=":J15_26_2" index="2" speed="11.49" length="30.37" shape="-116.80,37998.40 -109.67,38000.06 -102.67,38004.36 -97.33,38010.28 -95.20,38016.80"/>
        <lane id=":J15_26_3" index="3" speed="11.36" length="29.67" shape="-116.80,37998.40 -108.75,37999.55 -103.00,38003.00 -99.55,38008.75 -98.40,38016.80"/>
    </edge>
    <edge id=":J18_0" function="internal">
        <lane id=":J18_0_0" index="0" speed="16.67" length="9.63" shape="-104.80,2204.00 -105.80,2201.31 -108.00,2200.00 -110.20,2198.69 -111.20,2196.00"/>
        <lane id=":J18_0_1" index="1" speed="16.67" length="9.63" shape="-101.60,2204.00 -102.60,2201.31 -104.80,2200.00 -107.00,2198.69 -108.00,2196.00"/>
        <lane id=":J18_0_2" index="2" speed="16.67" length="9.63" shape="-101.60,2204.00 -102.10,2201.54 -103.20,2200.00 -104.30,2198.46 -104.80,2196.00"/>
        <lane id=":J18_0_3" index="3" speed="16.67" length="9.63" shape="-101.60,2204.00 -101.60,2196.00"/>
    </edge>
    <edge id=":J19_0" function="internal">
        <lane id=":J19_0_0" index="0" speed="16.67" length="27.20" shape="-114.40,6910.40 -114.40,6883.20"/>
        <lane id=":J19_0_1" index="1" speed="16.67" length="27.20" shape="-111.20,6910.40 -111.20,6883.20"/>
        <lane id=":J19_0_2" index="2" speed="16.67" length="27.20" shape="-108.00,6910.40 -108.00,6883.20"/>
        <lane id=":J19_0_3" index="3" speed="16.67" length="27.20" shape="-104.80,6910.40 -104.80,6883.20"/>
        <lane id=":J19_0_4" index="4" speed="16.67" length="27.20" shape="-101.60,6910.40 -101.60,6883.20"/>
    </edge>
    <edge id=":J19_5" function="internal">
        <lane id=":J19_5_0" index="0" speed="16.67" length="36.80" shape="-83.20,6904.80 -120.00,6904.80"/>
        <lane id=":J19_5_1" index="1" speed="16.67" length="36.80" shape="-83.20,6901.60 -120.00,6901.60"/>
    </edge>
    <edge id=":J19_7" function="internal">
        <lane id=":J19_7_0" index="0" speed="11.89" length="32.61" shape="-83.20,6901.60 -90.82,6899.84 -98.93,6895.38 -105.38,6889.43 -108.00,6883.20"/>
        <lane id=":J19_7_1" index="1" speed="11.49" length="30.37" shape="-83.20,6901.60 -90.32,6899.94 -97.33,6895.64 -102.67,6889.72 -104.80,6883.20"/>
        <lane id=":J19_7_2" index="2" speed="11.07" length="28.10" shape="-83.20,6901.60 -89.73,6899.94 -95.65,6895.65 -99.94,6889.73 -101.60,6883.20"/>
    </edge>
    <edge id=":J19_10" function="internal">
        <lane id=":J19_10_0" index="0" speed="16.67" length="27.20" shape="-88.80,6883.20 -88.80,6910.40"/>
        <lane id=":J19_10_1" index="1" speed="16.67" length="27.20" shape="-92.00,6883.20 -92.00,6910.40"/>
        <lane id=":J19_10_2" index="2" speed="16.67" length="27.20" shape="-95.20,6883.20 -95.20,6910.40"/>
        <lane id=":J19_10_3" index="3" speed="16.67" length="27.20" shape="-98.40,6883.20 -98.40,6910.40"/>
    </edge>
    <edge id=":J19_14" function="internal">
        <lane id=":J19_14_0" index="0" speed="16.67" length="37.47" shape="-120.00,6888.80 -107.78,6889.80 -98.35,6892.00 -90.54,6894.20 -83.20,6895.20"/>
        <lane id=":J19_14_1" index="1" speed="16.67" length="37.47" shape="-120.00,6892.00 -107.78,6893.00 -98.35,6895.20 -90.54,6897.40 -83.20,6898.40"/>
    </edge>
    <edge id=":J19_16" function="internal">
        <lane id=":J19_16_0" index="0" speed="12.44" length="35.78" shape="-120.00,6895.20 -111.38,6896.75 -101.07,6900.61 -92.43,6905.56 -88.80,6910.40"/>
        <lane id=":J19_16_1" index="1" speed="11.99" length="33.15" shape="-120.00,6895.20 -111.88,6896.68 -102.67,6900.41 -95.12,6905.34 -92.00,6910.40"/>
        <lane id=":J19_16_2" index="2" speed="11.20" length="28.83" shape="-120.00,6898.40 -112.38,6899.46 -104.27,6902.22 -97.83,6906.07 -95.20,6910.40"/>
        <lane id=":J19_16_3" index="3" speed="10.96" length="27.54" shape="-120.00,6898.40 -110.55,6899.15 -103.80,6901.40 -99.75,6905.15 -98.40,6910.40"/>
    </edge>
    <edge id=":J20_0" function="internal">
        <lane id=":J20_0_0" index="0" speed="16.67" length="8.81" shape="-114.40,3004.00 -113.90,3001.54 -112.80,3000.00 -111.70,2998.46 -111.20,2996.00"/>
        <lane id=":J20_0_1" index="1" speed="16.67" length="8.81" shape="-111.20,3004.00 -110.70,3001.54 -109.60,3000.00 -108.50,2998.46 -108.00,2996.00"/>
        <lane id=":J20_0_2" index="2" speed="16.67" length="8.81" shape="-108.00,3004.00 -107.50,3001.54 -106.40,3000.00 -105.30,2998.46 -104.80,2996.00"/>
        <lane id=":J20_0_3" index="3" speed="16.67" length="8.81" shape="-104.80,3004.00 -104.30,3001.54 -103.20,3000.00 -102.10,2998.46 -101.60,2996.00"/>
    </edge>
    <edge id=":J20_4" function="internal">
        <lane id=":J20_4_0" index="0" speed="16.67" length="8.81" shape="-85.60,2996.00 -86.10,2998.46 -87.20,3000.00 -88.30,3001.54 -88.80,3004.00"/>
        <lane id=":J20_4_1" index="1" speed="16.67" length="8.81" shape="-88.80,2996.00 -89.30,2998.46 -90.40,3000.00 -91.50,3001.54 -92.00,3004.00"/>
        <lane id=":J20_4_2" index="2" speed="16.67" length="8.81" shape="-92.00,2996.00 -92.50,2998.46 -93.60,3000.00 -94.70,3001.54 -95.20,3004.00"/>
        <lane id=":J20_4_3" index="3" speed="16.67" length="8.81" shape="-95.20,2996.00 -95.70,2998.46 -96.80,3000.00 -97.90,3001.54 -98.40,3004.00"/>
    </edge>
    <edge id=":J25_0" function="internal">
        <lane id=":J25_0_0" index="0" speed="15.28" length="10.04" shape="-111.20,32104.00 -112.20,32101.31 -114.40,32100.00 -116.60,32098.69 -117.60,32096.00"/>
        <lane id=":J25_0_1" index="1" speed="15.28" length="10.04" shape="-108.00,32104.00 -109.00,32101.31 -111.20,32100.00 -113.40,32098.69 -114.40,32096.00"/>
        <lane id=":J25_0_2" index="2" speed="15.28" length="10.04" shape="-104.80,32104.00 -105.80,32101.31 -108.00,32100.00 -110.20,32098.69 -111.20,32096.00"/>
        <lane id=":J25_0_3" index="3" speed="15.28" length="10.04" shape="-101.60,32104.00 -102.60,32101.31 -104.80,32100.00 -107.00,32098.69 -108.00,32096.00"/>
        <lane id=":J25_0_4" index="4" speed="15.28" length="10.04" shape="-101.60,32104.00 -102.10,32101.54 -103.20,32100.00 -104.30,32098.46 -104.80,32096.00"/>
        <lane id=":J25_0_5" index="5" speed="15.28" length="10.04" shape="-101.60,32104.00 -101.60,32096.00"/>
    </edge>
    <edge id=":J29_0" function="internal">
        <lane id=":J29_0_0" index="0" speed="16.67" length="0.10" shape="-111.20,11700.00 -111.20,11700.00"/>
        <lane id=":J29_0_1" index="1" speed="16.67" length="0.10" shape="-108.00,11700.00 -108.00,11700.00"/>
        <lane id=":J29_0_2" index="2" speed="16.67" length="0.10" shape="-104.80,11700.00 -104.80,11700.00"/>
        <lane id=":J29_0_3" index="3" speed="16.67" length="0.10" shape="-101.60,11700.00 -101.60,11700.00"/>
    </edge>
    <edge id=":J29_4" function="internal">
        <lane id=":J29_4_0" index="0" speed="15.28" length="0.10" shape="-88.80,11700.00 -88.80,11700.00"/>
        <lane id=":J29_4_1" index="1" speed="15.28" length="0.10" shape="-92.00,11700.00 -92.00,11700.00"/>
        <lane id=":J29_4_2" index="2" speed="15.28" length="0.10" shape="-95.20,11700.00 -95.20,11700.00"/>
        <lane id=":J29_4_3" index="3" speed="15.28" length="0.10" shape="-98.40,11700.00 -98.40,11700.00"/>
    </edge>
    <edge id=":J3_0" function="internal">
        <lane id=":J3_0_0" index="0" speed="16.67" length="8.64" shape="-111.20,1204.00 -111.70,1201.54 -112.80,1200.00 -113.90,1198.46 -114.40,1196.00"/>
        <lane id=":J3_0_1" index="1" speed="16.67" length="8.64" shape="-108.00,1204.00 -108.50,1201.54 -109.60,1200.00 -110.70,1198.46 -111.20,1196.00"/>
        <lane id=":J3_0_2" index="2" speed="16.67" length="8.64" shape="-104.80,1204.00 -105.30,1201.54 -106.40,1200.00 -107.50,1198.46 -108.00,1196.00"/>
        <lane id=":J3_0_3" index="3" speed="16.67" length="8.64" shape="-101.60,1204.00 -102.10,1201.54 -103.20,1200.00 -104.30,1198.46 -104.80,1196.00"/>
        <lane id=":J3_0_4" index="4" speed="16.67" length="8.64" shape="-101.60,1204.00 -101.60,1196.00"/>
    </edge>
    <edge id=":J3_5" function="internal">
        <lane id=":J3_5_0" index="0" speed="16.67" length="13.61" shape="-79.20,1196.00 -80.70,1199.01 -84.00,1200.00 -87.30,1200.99 -88.80,1204.00"/>
        <lane id=":J3_5_1" index="1" speed="16.67" length="13.61" shape="-82.40,1196.00 -83.90,1199.01 -87.20,1200.00 -90.50,1200.99 -92.00,1204.00"/>
        <lane id=":J3_5_2" index="2" speed="16.67" length="13.61" shape="-85.60,1196.00 -87.10,1199.01 -90.40,1200.00 -93.70,1200.99 -95.20,1204.00"/>
        <lane id=":J3_5_3" index="3" speed="16.67" length="13.61" shape="-88.80,1196.00 -90.30,1199.01 -93.60,1200.00 -96.90,1200.99 -98.40,1204.00"/>
    </edge>
    <edge id=":J35_0" function="internal">
        <lane id=":J35_0_0" index="0" speed="16.67" length="20.80" shape="-111.20,24204.00 -111.20,24183.20"/>
        <lane id=":J35_0_1" index="1" speed="16.67" length="20.80" shape="-108.00,24204.00 -108.00,24183.20"/>
        <lane id=":J35_0_2" index="2" speed="16.67" length="20.80" shape="-104.80,24204.00 -104.80,24183.20"/>
        <lane id=":J35_0_3" index="3" speed="16.67" length="20.80" shape="-101.60,24204.00 -101.60,24183.20"/>
    </edge>
    <edge id=":J35_4" function="internal">
        <lane id=":J35_4_0" index="0" speed="10.88" length="27.14" shape="-101.60,24204.00 -100.45,24197.35 -97.00,24192.60 -91.25,24189.75 -83.20,24188.80"/>
        <lane id=":J35_4_1" index="1" speed="10.41" length="24.73" shape="-101.60,24204.00 -100.45,24198.75 -97.00,24195.00 -91.25,24192.75 -83.20,24192.00"/>
        <lane id=":J35_4_2" index="2" speed="9.94" length="22.48" shape="-101.60,24204.00 -100.45,24200.15 -97.00,24197.40 -91.25,24195.75 -83.20,24195.20"/>
        <lane id=":J35_4_3" index="3" speed="9.51" length="20.48" shape="-101.60,24204.00 -100.45,24201.55 -97.00,24199.80 -91.25,24198.75 -83.20,24198.40"/>
    </edge>
    <edge id=":J35_8" function="internal">
        <lane id=":J35_8_0" index="0" speed="6.51" length="9.03" shape="-88.80,24183.20 -88.45,24185.65 -87.40,24187.40 -85.65,24188.45 -83.20,24188.80"/>
        <lane id=":J35_8_1" index="1" speed="7.33" length="11.73" shape="-88.80,24183.20 -88.45,24187.05 -87.40,24189.80 -85.65,24191.45 -83.20,24192.00"/>
        <lane id=":J35_8_2" index="2" speed="8.10" length="14.57" shape="-88.80,24183.20 -88.45,24188.45 -87.40,24192.20 -85.65,24194.45 -83.20,24195.20"/>
    </edge>
    <edge id=":J35_11" function="internal">
        <lane id=":J35_11_0" index="0" speed="15.28" length="20.80" shape="-88.80,24183.20 -88.80,24204.00"/>
        <lane id=":J35_11_1" index="1" speed="15.28" length="20.80" shape="-92.00,24183.20 -92.00,24204.00"/>
        <lane id=":J35_11_2" index="2" speed="15.28" length="20.80" shape="-95.20,24183.20 -95.20,24204.00"/>
        <lane id=":J35_11_3" index="3" speed="15.28" length="20.80" shape="-98.40,24183.20 -98.40,24204.00"/>
    </edge>
    <edge id=":J38_0" function="internal">
        <lane id=":J38_0_0" index="0" speed="15.28" length="0.10" shape="-111.20,28600.00 -111.20,28600.00"/>
        <lane id=":J38_0_1" index="1" speed="15.28" length="0.10" shape="-108.00,28600.00 -108.00,28600.00"/>
        <lane id=":J38_0_2" index="2" speed="15.28" length="0.10" shape="-104.80,28600.00 -104.80,28600.00"/>
        <lane id=":J38_0_3" index="3" speed="15.28" length="0.10" shape="-101.60,28600.00 -101.60,28600.00"/>
    </edge>
    <edge id=":J38_4" function="internal">
        <lane id=":J38_4_0" index="0" speed="13.89" length="0.10" shape="-88.80,28600.00 -88.80,28600.00"/>
        <lane id=":J38_4_1" index="1" speed="13.89" length="0.10" shape="-92.00,28600.00 -92.00,28600.00"/>
        <lane id=":J38_4_2" index="2" speed="13.89" length="0.10" shape="-95.20,28600.00 -95.20,28600.00"/>
        <lane id=":J38_4_3" index="3" speed="13.89" length="0.10" shape="-98.40,28600.00 -98.40,28600.00"/>
    </edge>
    <edge id=":J4_0" function="internal">
        <lane id=":J4_0_0" index="0" speed="16.67" length="10.17" shape="-114.40,-1196.00 -115.40,-1198.69 -117.60,-1200.01 -119.80,-1201.32 -120.80,-1204.01"/>
        <lane id=":J4_0_1" index="1" speed="16.67" length="10.17" shape="-111.20,-1196.00 -112.20,-1198.69 -114.40,-1200.01 -116.60,-1201.32 -117.60,-1204.01"/>
        <lane id=":J4_0_2" index="2" speed="16.67" length="10.17" shape="-108.00,-1196.00 -109.00,-1198.69 -111.20,-1200.01 -113.40,-1201.32 -114.40,-1204.01"/>
        <lane id=":J4_0_3" index="3" speed="16.67" length="10.17" shape="-104.80,-1196.00 -105.80,-1198.69 -108.00,-1200.01 -110.20,-1201.32 -111.20,-1204.01"/>
        <lane id=":J4_0_4" index="4" speed="16.67" length="10.17" shape="-101.60,-1196.00 -102.60,-1198.69 -104.80,-1200.01 -107.00,-1201.32 -108.00,-1204.01"/>
        <lane id=":J4_0_5" index="5" speed="16.67" length="10.17" shape="-101.60,-1196.00 -102.10,-1198.47 -103.20,-1200.01 -104.30,-1201.55 -104.80,-1204.01"/>
        <lane id=":J4_0_6" index="6" speed="16.67" length="10.17" shape="-101.60,-1196.00 -101.60,-1204.01"/>
    </edge>
    <edge id=":J4_7" function="internal">
        <lane id=":J4_7_0" index="0" speed="16.67" length="8.82" shape="-76.00,-1204.01 -76.50,-1201.55 -77.60,-1200.01 -78.70,-1198.47 -79.20,-1196.00"/>
        <lane id=":J4_7_1" index="1" speed="16.67" length="8.82" shape="-79.20,-1204.01 -79.70,-1201.55 -80.80,-1200.01 -81.90,-1198.47 -82.40,-1196.00"/>
        <lane id=":J4_7_2" index="2" speed="16.67" length="8.82" shape="-82.40,-1204.01 -82.90,-1201.55 -84.00,-1200.01 -85.10,-1198.47 -85.60,-1196.00"/>
        <lane id=":J4_7_3" index="3" speed="16.67" length="8.82" shape="-85.60,-1204.01 -86.10,-1201.55 -87.20,-1200.01 -88.30,-1198.47 -88.80,-1196.00"/>
        <lane id=":J4_7_4" index="4" speed="16.67" length="8.82" shape="-88.80,-1204.01 -89.30,-1201.55 -90.40,-1200.01 -91.50,-1198.47 -92.00,-1196.00"/>
        <lane id=":J4_7_5" index="5" speed="16.67" length="8.82" shape="-92.00,-1204.01 -92.50,-1201.55 -93.60,-1200.01 -94.70,-1198.47 -95.20,-1196.00"/>
        <lane id=":J4_7_6" index="6" speed="16.67" length="8.82" shape="-95.20,-1204.01 -95.70,-1201.55 -96.80,-1200.01 -97.90,-1198.47 -98.40,-1196.00"/>
    </edge>
    <edge id=":J6_0" function="internal">
        <lane id=":J6_0_0" index="0" speed="15.28" length="22.07" shape="-117.60,32010.40 -116.60,32004.09 -114.40,32000.00 -112.20,31995.91 -111.20,31989.60"/>
        <lane id=":J6_0_1" index="1" speed="15.28" length="22.07" shape="-114.40,32010.40 -113.40,32004.09 -111.20,32000.00 -109.00,31995.91 -108.00,31989.60"/>
        <lane id=":J6_0_2" index="2" speed="15.28" length="22.07" shape="-111.20,32010.40 -110.20,32004.09 -108.00,32000.00 -105.80,31995.91 -104.80,31989.60"/>
        <lane id=":J6_0_3" index="3" speed="15.28" length="22.07" shape="-108.00,32010.40 -107.00,32004.09 -104.80,32000.00 -102.60,31995.91 -101.60,31989.60"/>
    </edge>
    <edge id=":J6_4" function="internal">
        <lane id=":J6_4_0" index="0" speed="11.39" length="29.85" shape="-104.80,32010.40 -103.45,32003.75 -99.40,31999.00 -92.65,31996.15 -83.20,31995.20"/>
        <lane id=":J6_4_1" index="1" speed="10.41" length="24.73" shape="-101.60,32010.40 -100.45,32005.15 -97.00,32001.40 -91.25,31999.15 -83.20,31998.40"/>
    </edge>
    <edge id=":J6_6" function="internal">
        <lane id=":J6_6_0" index="0" speed="6.51" length="9.03" shape="-83.20,32004.80 -85.65,32005.15 -87.40,32006.20 -88.45,32007.95 -88.80,32010.40"/>
        <lane id=":J6_6_1" index="1" speed="7.33" length="11.73" shape="-83.20,32004.80 -87.05,32005.15 -89.80,32006.20 -91.45,32007.95 -92.00,32010.40"/>
        <lane id=":J6_6_2" index="2" speed="8.10" length="14.57" shape="-83.20,32004.80 -88.45,32005.15 -92.20,32006.20 -94.45,32007.95 -95.20,32010.40"/>
    </edge>
    <edge id=":J6_9" function="internal">
        <lane id=":J6_9_0" index="0" speed="10.96" length="27.54" shape="-83.20,32001.60 -92.65,32000.85 -99.40,31998.60 -103.45,31994.85 -104.80,31989.60"/>
        <lane id=":J6_9_1" index="1" speed="10.41" length="24.73" shape="-83.20,32001.60 -91.25,32000.85 -97.00,31998.60 -100.45,31994.85 -101.60,31989.60"/>
    </edge>
    <edge id=":J6_11" function="internal">
        <lane id=":J6_11_0" index="0" speed="6.51" length="9.03" shape="-88.80,31989.60 -88.45,31992.05 -87.40,31993.80 -85.65,31994.85 -83.20,31995.20"/>
    </edge>