<?xml version="1.0" encoding="UTF-8"?>

<!-- generated on 2022-05-31 22:20:00 by Eclipse SUMO duarouter Version 1.13.0
<configuration xmlns:xsi="http://www.w3.org/2001/XMLSchema-instance" xsi:noNamespaceSchemaLocation="http://sumo.dlr.de/xsd/duarouterConfiguration.xsd">

    <input>
        <net-file value="Roxas.net.xml"/>
        <route-files value="trips.xml"/>
    </input>

    <output>
        <output-file value="Roxas.rou.xml"/>
        <alternatives-output value="Roxas.rou.alt.xml"/>
    </output>

    <time>
        <begin value="0"/>
        <end value="5400"/>
    </time>

    <report>
        <no-warnings value="true"/>
        <ignore-errors value="true"/>
        <no-step-log value="true"/>
    </report>

</configuration>
-->

<routes xmlns:xsi="http://www.w3.org/2001/XMLSchema-instance" xsi:noNamespaceSchemaLocation="http://sumo.dlr.de/xsd/routes_file.xsd">
    <vehicle id="2" depart="1.08">
        <route edges="-E36 E25 E26 -E8 -E37 -E34 -E29 -E22 -E40 E18 E7 E19 -E2 E2 E38 -E18 E40 E22 E29"/>
    </vehicle>
    <vehicle id="4" depart="2.16">
        <route edges="-E27 E25 E26 -E8 -E37 -E34 -E29 -E22 -E40 E18 E7 E19 -E2 E2 E38 -E18"/>
    </vehicle>
    <vehicle id="5" depart="2.70">
        <route edges="-E20 E21"/>
    </vehicle>
    <vehicle id="9" depart="4.86">
        <route edges="E1 -E0"/>
    </vehicle>
    <vehicle id="10" depart="5.40">
        <route edges="E1 -E0 E3"/>
    </vehicle>
    <vehicle id="11" depart="5.94">
        <route edges="-E23 -E8 -E37"/>
    </vehicle>
    <vehicle id="12" depart="6.48">
        <route edges="E9 E12 E13"/>
    </vehicle>
    <vehicle id="16" depart="8.64">
        <route edges="-E31 -E22 -E40 E18 E7"/>
    </vehicle>
    <vehicle id="17" depart="9.18">
        <route edges="-E23 -E8 -E37 -E34 -E29 -E22 -E40 E18 E7 E19 -E2 E2 E38 -E18 E40 E22 E29 E34 E37 E8 E23"/>
    </vehicle>
    <vehicle id="21" depart="11.34">
        <route edges="-E20 -E40 E18 E11"/>
    </vehicle>
    <vehicle id="22" depart="11.88">
        <route edges="-E11 E7 E19 -E2 -E0 E3 E5 -E9"/>
    </vehicle>
    <vehicle id="23" depart="12.42">
        <route edges="-E11 E7 E19 -E2 E2 E38 E11"/>
    </vehicle>
    <vehicle id="25" depart="13.50">
        <route edges="-E23 -E8"/>
    </vehicle>
    <vehicle id="30" depart="16.20">
        <route edges="E9 E12 E13 -E3 E0 E2 E38 -E18 E40 E22 E29 E34 E37 E8 E24 E28"/>
    </vehicle>
    <vehicle id="31" depart="16.74">
        <route edges="-E31 -E22 -E40 E18 E7 E19 -E2 -E0 E3"/>
    </vehicle>
    <vehicle id="32" depart="17.28">
        <route edges="E1 E2 E38 -E18 E40 E22 E29 E34"/>
    </vehicle>
    <vehicle id="33" depart="17.82">
        <route edges="-E20 -E40 E18 E7 E19 -E2 E2 E38 -E18"/>
    </vehicle>
    <vehicle id="35" depart="18.90">
        <route edges="-E20 -E40 E18 E7 E19 -E2 -E0 E3 E5 E6"/>
    </vehicle>
    <vehicle id="38" depart="20.52">
        <route edges="E14 E16 E13 -E3 E0 E2"/>
    </vehicle>
    <vehicle id="40" depart="21.60">
        <route edges="-E31 -E22 -E40 E18 E7 E19 -E2 -E0 E3 E5 E10"/>
    </vehicle>
    <vehicle id="41" depart="22.14">
        <route edges="-E31 -E22 -E40 E18 E7 E19 -E2 E2 E38 -E18 E40"/>
    </vehicle>
    <vehicle id="42" depart="22.68">
        <route edges="-E23 -E8 -E37 -E34 -E29 -E22 -E40 E18 E7 E19 -E2 -E0 E3 E5 -E9"/>
    </vehicle>
    <vehicle id="44" depart="23.76">
        <route edges="-E11 E7 E19 -E2"/>
    </vehicle>
    <vehicle id="46" depart="24.84">
        <route edges="-E36 E25 E26 -E8 -E37 -E34 -E29 -E22 -E40 E18"/>
    </vehicle>
    <vehicle id="48" depart="25.92">
        <route edges="E9 E12 E13 -E3 E0 E2 E38 -E18 E40 E22"/>
    </vehicle>
    <vehicle id="49" depart="26.46">
        <route edges="E9 E12 E13 -E3 E0 E2 E38"/>
    </vehicle>
    <vehicle id="52" depart="28.08">
        <route edges="-E21 E22 E29 E34 E37 E8 E24 E28"/>
    </vehicle>
    <vehicle id="53" depart="28.62">
        <route edges="-E11 E7 E19"/>
    </vehicle>
    <vehicle id="54" depart="29.16">
        <route edges="-E27 E25 E26 -E8 -E37 -E34 -E29 -E22 -E40 E18 E7 E19 -E2 -E0 E3 E5 E6"/>
    </vehicle>
    <vehicle id="55" depart="29.70">
        <route edges="E14 E15 E10"/>
    </vehicle>
    <vehicle id="56" depart="30.24">
        <route edges="-E28 E25 E26 -E8 -E37 -E34 -E29 -E22 -E40"/>
    </vehicle>
    <vehicle id="57" depart="30.78">
        <route edges="E14 E16 E13 -E3 E0 E2 E38"/>
    </vehicle>
    <vehicle id="58" depart="31.32">
        <route edges="-E21 E22 E29 E34 E37 E8 E24 E28"/>
    </vehicle>
    <vehicle id="60" depart="32.40">
        <route edges="-E36 E25 E26 E23"/>
    </vehicle>
    <vehicle id="61" depart="32.94">
        <route edges="-E36 E25 E26 -E8 -E37 -E34 -E29 -E22 -E40 E18 E7 E19 -E2 E2 E38 -E18 E40 E22"/>
    </vehicle>
    <vehicle id="62" depart="33.48">
        <route edges="-E10 E12 E13"/>
    </vehicle>
    <vehicle id="64" depart="34.56">
        <route edges="E14 E16 E13 -E3 E0 E2 E38 -E18 E40 E22 E29 E34 E37"/>
    </vehicle>
    <vehicle id="69" depart="37.26">
        <route edges="-E36 E25 E26 -E8 -E37 -E34"/>
    </vehicle>
    <vehicle id="70" depart="37.80">
        <route edges="-E28 E25 E26 E23"/>
    </vehicle>
    <vehicle id="71" depart="38.34">
        <route edges="-E20 -E40 E18 E7 E19 -E2 -E0 E4"/>
    </vehicle>
    <vehicle id="72" depart="38.88">
        <route edges="-E27 E25 E26 -E8"/>
    </vehicle>
    <vehicle id="75" depart="40.50">
        <route edges="E9 E12 E13 -E3 E0 E2 E38 -E18 E40 E22 E29 E34 E37 E8 E24 E28"/>
    </vehicle>
    <vehicle id="76" depart="41.04">
        <route edges="-E27 E25 E26 -E8 -E37 -E34 -E29 -E22 -E40 E18 E7 E19 -E2 E2 E38 -E18 E40 E22"/>
    </vehicle>
    <vehicle id="77" depart="41.58">
        <route edges="-E11 E7 E19 -E2 -E0 E3 E5 -E9"/>
    </vehicle>
    <vehicle id="79" depart="42.66">
        <route edges="-E20 -E40 E18 E7 E19 -E2 -E0 E3 E5 -E9"/>
    </vehicle>
    <vehicle id="81" depart="43.74">
        <route edges="-E20 -E40 E18 E7 E19 -E2 E2 E38 -E18 E40"/>
    </vehicle>
    <vehicle id="83" depart="44.82">
        <route edges="-E20 -E40 E18 E7 E19 -E2 E2 E38 -E18 E40 E22 E29"/>
    </vehicle>
    <vehicle id="85" depart="45.90">
        <route edges="E9 E12 E13 -E3 E0 E2 E38 -E18 E40 E22 E29 E34 E37 E8 E24"/>
    </vehicle>
    <vehicle id="86" depart="46.44">
        <route edges="-E28 E25 E26 -E8 -E37 -E34 -E29 -E22 -E40 E18 E7 E19 -E2 E2 E38 -E18 E40 E22 E29 E34"/>
    </vehicle>
    <vehicle id="88" depart="47.52">
        <route edges="-E11 E7 E19"/>
    </vehicle>
    <vehicle id="89" depart="48.06">
        <route edges="-E27 E25 E26 -E8 -E37 -E34 -E29 -E22 -E40 E18 E7 E19 -E2 E2"/>
    </vehicle>
    <vehicle id="94" depart="50.76">
        <route edges="-E17 E7 E19 -E2 E2"/>
    </vehicle>
    <vehicle id="95" depart="51.30">
        <route edges="-E27 E25 E26 -E8 -E37 -E34 -E29 -E22 -E40 E18 E11"/>
    </vehicle>
    <vehicle id="96" depart="51.84">
        <route edges="-E20 -E40 E18 E7 E19 -E2 -E0 E3 E5"/>
    </vehicle>
    <vehicle id="97" depart="52.38">
        <route edges="-E27 E25 E26 -E8 -E37 -E34 -E29 -E22 -E40 E18 E7 E19 -E2 E2 E38"/>
    </vehicle>
    <vehicle id="98" depart="52.92">
        <route edges="-E31 -E22 -E40 E18 E7 E19 -E2"/>
    </vehicle>
    <vehicle id="99" depart="53.46">
        <route edges="E9 E12 E13 -E3 E0 E2 E38 -E18 E40 E22 E29 E34 E37"/>
    </vehicle>
    <vehicle id="102" depart="55.08">
        <route edges="-E28 E25 E26 -E8 -E37 -E34 -E29 -E22 -E40 E18 E7 E19 -E2 -E0 E3 E5 -E9"/>
    </vehicle>
    <vehicle id="103" depart="55.62">
        <route edges="-E27 E25 E26 -E8 -E37 -E34 -E29 -E22 -E40 E18 E7 E19 -E2"/>
    </vehicle>
    <vehicle id="104" depart="56.16">
        <route edges="-E23 -E8 -E37 -E34 -E29 -E22 -E40 E18 E7 E19 -E2 E2 E38 -E18 E40 E22 E29 E34 E37 E8"/>
    </vehicle>
    <vehicle id="105" depart="56.70">
        <route edges="-E20 -E40 E18 E7 E19 -E2 E2 E38 -E18 E40 E22 E29 E34"/>
    </vehicle>
    <vehicle id="106" depart="57.24">
        <route edges="-E27 E25 E26 -E8 -E37 -E34 -E29 -E22 -E40 E18"/>
    </vehicle>
    <vehicle id="107" depart="57.78">
        <route edges="E9 E12 E13 -E3 E0 E2 E38 -E18 E40 E22 E29 E34 E37 E8"/>
    </vehicle>
    <vehicle id="109" depart="58.86">
        <route edges="-E17 E11"/>
    </vehicle>
    <vehicle id="113" depart="61.02">
        <route edges="-E28 E25 E26 -E8 -E37 -E34 -E29 -E22 -E40 E18 E7 E19 -E2 E2 E38"/>
    </vehicle>
    <vehicle id="114" depart="61.56">
        <route edges="-E17 E7"/>
    </vehicle>
    <vehicle id="116" depart="62.64">
        <route edges="-E31 E29"/>
    </vehicle>
    <vehicle id="118" depart="63.72">
        <route edges="E14 E16 E13 -E3 E0"/>
    </vehicle>
    <vehicle id="120" depart="64.80">
        <route edges="-E27 E25"/>
    </vehicle>
    <vehicle id="121" depart="65.34">
        <route edges="-E28 E25 E26 -E8 -E37 -E34 -E29 -E22 -E40 E18 E7 E19 -E2 -E0 E3 E5"/>
    </vehicle>
    <vehicle id="123" depart="66.42">
        <route edges="-E20 -E40 E18 E17"/>
    </vehicle>
    <vehicle id="126" depart="68.04">
        <route edges="-E11 E7 E19 -E2 E2"/>
    </vehicle>
    <vehicle id="127" depart="68.58">
        <route edges="E9 E12 E13 -E3 E0 E2 E38 -E18 E40 E22 E29 E34 E37 E8"/>
    </vehicle>
    <vehicle id="128" depart="69.12">
        <route edges="-E11 E7 E19 -E2 -E0 E3 E5 -E9"/>
    </vehicle>
    <vehicle id="129" depart="69.66">
        <route edges="-E20 -E40 E18 E7 E19 -E2 -E0 E3 E5"/>
    </vehicle>
    <vehicle id="130" depart="70.20">
        <route edges="E14 E16 E13 -E3 E4"/>
    </vehicle>
    <vehicle id="131" depart="70.74">
        <route edges="-E23 -E8 -E37"/>
    </vehicle>
    <vehicle id="138" depart="74.52">
        <route edges="-E11 -E18 E40 E22 E29 E34 E37 E8 E24"/>
    </vehicle>
    <vehicle id="142" depart="76.68">
        <route edges="-E28 E25 E26 -E8 -E37 -E34 -E29 -E22 -E40 E18 E7 E19 -E2 E2 E38 -E18 E40"/>
    </vehicle>
    <vehicle id="144" depart="77.76">
        <route edges="-E27 E25 E26 -E8 -E37 -E34 -E29 -E22 -E40 E18 E11"/>
    </vehicle>
    <vehicle id="145" depart="78.30">
        <route edges="-E10 E12 E13 -E3 E0 E2 E38 -E18 E40 E22 E29 E34"/>
    </vehicle>
    <vehicle id="147" depart="79.38">
        <route edges="-E36 E25 E26 E23"/>
    </vehicle>
    <vehicle id="148" depart="79.92">
        <route edges="-E27 E25 E26 -E8 -E37 -E34 -E29 -E22 -E40 E18 E7 E19 -E2 -E0"/>
    </vehicle>
    <vehicle id="149" depart="80.46">
        <route edges="-E11 E7 E19 -E2 -E0 E4"/>
    </vehicle>
    <vehicle id="150" depart="81.00">
        <route edges="E14 E16 E13 -E3 E0 E2 E38 -E18 E40 E22 E29 E34 E37 E8 E23"/>
    </vehicle>
    <vehicle id="154" depart="83.16">
        <route edges="-E36 E25 E26 -E8 -E37 -E34 -E29 -E22 -E40 E18 E7 E19 -E2 E2 E38"/>
    </vehicle>
    <vehicle id="157" depart="84.78">
        <route edges="-E36 E25 E26 -E8 -E37 -E34 -E29 -E22 -E40 E18 E7 E19 -E2 -E0 E4"/>
    </vehicle>
    <vehicle id="159" depart="85.86">
        <route edges="-E17 E7 E19 -E2 -E0 E3 E5"/>
    </vehicle>
    <vehicle id="161" depart="86.94">
        <route edges="E1 -E0 E4"/>
    </vehicle>
    <vehicle id="164" depart="88.56">
        <route edges="E1 E2 E38"/>
    </vehicle>
    <vehicle id="165" depart="89.10">
        <route edges="E1 -E0 E3 E5 E10"/>
    </vehicle>
    <vehicle id="167" depart="90.18">
        <route edges="E14 E16 E13 -E3 E0 E2 E38"/>
    </vehicle>
    <vehicle id="168" depart="90.72">
        <route edges="-E20 -E40 E18 E7 E19 -E2 E2 E38 -E18 E40 E22 E29 E34 E37 E8 E24 E36"/>
    </vehicle>
    <vehicle id="170" depart="91.80">
        <route edges="-E36 E25 E26 -E8 -E37 -E34 -E29 -E22 -E40 E18 E7 E19 -E2 -E0 E3 E5 -E9"/>
    </vehicle>
    <vehicle id="173" depart="93.42">
        <route edges="E9 E12 E13 -E3 E0 E2 E38 E11"/>
    </vehicle>
    <vehicle id="175" depart="94.50">
        <route edges="E9 E12 E13 -E3 E0 E2 E38 -E18 E40 E22 E29 E34 E37 E8 E23"/>
    </vehicle>
    <vehicle id="176" depart="95.04">
        <route edges="E9 E12 E13 -E3"/>
    </vehicle>
    <vehicle id="178" depart="96.12">
        <route edges="E9 E10"/>
    </vehicle>
    <vehicle id="179" depart="96.66">
        <route edges="-E11 E7 E19"/>
    </vehicle>
    <vehicle id="186" depart="100.44">
        <route edges="-E36 E25 E26 -E8 -E37 -E34 -E29 -E22 -E40 E18 E7 E19 -E2 E2 E38 -E18 E40 E22 E29"/>
    </vehicle>
    <vehicle id="187" depart="100.98">
        <route edges="-E23 -E8 -E37 -E34 -E29 -E22"/>
    </vehicle>
    <vehicle id="189" depart="102.06">
        <route edges="-E21 E22 E29 E34 E37"/>
    </vehicle>
    <vehicle id="192" depart="103.68">
        <route edges="-E27 E25 E26 -E8 -E37 -E34 -E29 -E22 -E40 E18 E11"/>
    </vehicle>
    <vehicle id="194" depart="104.76">
        <route edges="E9 E12 E13 -E3 E0 E2 E38 -E18 E40 E22 E29"/>
    </vehicle>
    <vehicle id="196" depart="105.84">
        <route edges="-E21 E22 E29 E34 E37 E8 E23"/>
    </vehicle>
    <vehicle id="197" depart="106.38">
        <route edges="-E10 E12 E13 -E3 E0 E2 E38 E11"/>
    </vehicle>
    <vehicle id="198" depart="106.92">
        <route edges="-E27 E25"/>
    </vehicle>
    <vehicle id="200" depart="108.00">
        <route edges="-E27 E25 E26 -E8 -E37 -E34 -E29 -E22 -E40 E18 E7 E19 -E2 -E0 E3 E5 -E9"/>
    </vehicle>
    <vehicle id="201" depart="108.54">
        <route edges="-E28 E25 E26 -E8 -E37 -E34 -E29 -E22 -E40 E18 E7 E19 -E2 E2 E38 -E18 E40"/>
    </vehicle>
    <vehicle id="202" depart="109.08">
        <route edges="-E36 E25 E26 -E8 -E37"/>
    </vehicle>
    <vehicle id="203" depart="109.62">
        <route edges="-E11 -E18 E40 E22"/>
    </vehicle>
    <vehicle id="207" depart="111.78">
        <route edges="-E17 -E18"/>
    </vehicle>
    <vehicle id="211" depart="113.94">
        <route edges="-E17 E7 E19 -E2 -E0 E3"/>
    </vehicle>
    <vehicle id="214" depart="115.56">
        <route edges="-E36 E25 E26 -E8 -E37 -E34 -E29 -E22 -E40 E18 E7 E19 -E2 E2 E38 -E18 E40 E22 E29 E34"/>
    </vehicle>
    <vehicle id="216" depart="116.64">
        <route edges="-E17 E7"/>
    </vehicle>
    <vehicle id="217" depart="117.18">
        <route edges="-E28 E25 E26 -E8 -E37 -E34 -E29 -E22 -E40 E18 E7 E19 -E2"/>
    </vehicle>
    <vehicle id="218" depart="117.72">
        <route edges="-E20 -E40 E18 E7 E19 -E2 E2 E38 -E18 E40 E22 E29 E34 E37"/>
    </vehicle>
    <vehicle id="219" depart="118.26">
        <route edges="-E27 E25 E26 -E8 -E37 E35"/>
    </vehicle>
    <vehicle id="221" depart="119.34">
        <route edges="-E31 -E22 -E40 E18 E7 E19 -E2 -E0 E3 E5 E6"/>
    </vehicle>
    <vehicle id="224" depart="120.96">
        <route edges="E1 E2 E38 -E18 E40 E22 E29 E34 E37 E8 E23"/>
    </vehicle>
    <vehicle id="226" depart="122.04">
        <route edges="-E28 E25 E26 -E8 -E37 -E34 -E29 -E22 -E40 E18 E7 E19 -E2 -E0 E3 E5 E10"/>
    </vehicle>
    <vehicle id="228" depart="123.12">
        <route edges="-E36 E25 E26 -E8 -E37 -E34 -E29 -E22 -E40 E18 E7 E19 -E2 E2 E38 -E18 E40 E22"/>
    </vehicle>
    <vehicle id="230" depart="124.20">
        <route edges="-E11 E7 E19 -E2 E2 E38 E11"/>
    </vehicle>
    <vehicle id="233" depart="125.82">
        <route edges="-E20 -E40 E18 E7 E19 -E2 -E0 E3"/>
    </vehicle>
    <vehicle id="235" depart="126.90">
        <route edges="-E27 E25 E26 E23"/>
    </vehicle>
    <vehicle id="236" depart="127.44">
        <route edges="-E27 E25 E26 -E8"/>
    </vehicle>
    <vehicle id="237" depart="127.98">
        <route edges="-E27 E25 E26 -E8 -E37 -E34 -E29 -E22 -E40 E18 E7 E19 -E2 E2 E38 -E18 E40"/>
    </vehicle>
    <vehicle id="238" depart="128.52">
        <route edges="-E31 -E22 -E40 E18 E7 E19 -E2 -E0 E3"/>
    </vehicle>
    <vehicle id="240" depart="129.60">
        <route edges="-E23 -E8 -E37 -E34 -E29 -E22 -E40 E18 E7 E19 -E2 -E0"/>
    </vehicle>
    <vehicle id="242" depart="130.68">
        <route edges="E1 -E0 E3 E5 E6"/>
    </vehicle>
    <vehicle id="245" depart="132.30">
        <route edges="-E20 -E40 E18 E7 E19 -E2 -E0 E3 E5 -E9"/>
    </vehicle>
    <vehicle id="246" depart="132.84">
        <route edges="-E27 E25 E26 -E8 -E37 -E34 -E29 -E22 -E40 E18 E7 E19 -E2 E2 E38 -E18"/>
    </vehicle>
    <vehicle id="247" depart="133.38">
        <route edges="-E23 -E8 -E37 -E34 -E29 -E22 -E40 E18 E7 E19 -E2 E2 E38 -E18 E40 E22 E29"/>
    </vehicle>
    <vehicle id="248" depart="133.92">
        <route edges="-E27 E25 E26 -E8 -E37"/>
    </vehicle>
    <vehicle id="251" depart="135.54">
        <route edges="-E23 E24"/>
    </vehicle>
    <vehicle id="252" depart="136.08">
        <route edges="-E10 E12 E13 -E3 E0 E2 E38 -E18 E40 E22 E29 E34 E37 E8 E24 E28"/>
    </vehicle>
    <vehicle id="253" depart="136.62">
        <route edges="-E17 E7 E19 -E2 E2"/>
    </vehicle>
    <vehicle id="257" depart="138.78">
        <route edges="-E36 E25 E26 -E8 -E37 -E34 -E29 -E22 -E40 E18 E7 E19 -E2 E2 E38 -E18 E40 E22 E29 E34 E37"/>
    </vehicle>
    <vehicle id="259" depart="139.86">
        <route edges="-E10 E12 E13 -E3 E0 E2 E38 -E18 E40 E22 E29 E34 E37 E8 E23"/>
    </vehicle>
    <vehicle id="262" depart="141.48">
        <route edges="-E32 E33"/>
    </vehicle>
    <vehicle id="265" depart="143.10">
        <route edges="-E11 -E18 E40 E22 E29"/>
    </vehicle>
    <vehicle id="266" depart="143.64">
        <route edges="-E31 -E22 -E40 E18 E7 E19 -E2 -E0 E3 E5 -E9"/>
    </vehicle>
    <vehicle id="271" depart="146.34">
        <route edges="-E11 -E18"/>
    </vehicle>
    <vehicle id="272" depart="146.88">
        <route edges="-E21 E22 E29"/>
    </vehicle>
    <vehicle id="273" depart="147.42">
        <route edges="E9 E12 E13 -E3 E0 E2 E38 E17"/>
    </vehicle>
    <vehicle id="276" depart="149.04">
        <route edges="-E11 -E18 E40 E22 E29 E34"/>
    </vehicle>
    <vehicle id="278" depart="150.12">
        <route edges="-E11 -E18 E40 E22 E29 E34 E37 E8"/>
    </vehicle>
    <vehicle id="282" depart="152.28">
        <route edges="E1 E2 E38 -E18 E40 E22 E29 E34 E37 E8 E24 E36"/>
    </vehicle>
    <vehicle id="283" depart="152.82">
        <route edges="-E11 E7"/>
    </vehicle>
    <vehicle id="286" depart="154.44">
        <route edges="-E36 E25 E26 -E8 -E37 -E34 -E29 -E22 -E40 E18 E7"/>
    </vehicle>
    <vehicle id="287" depart="154.98">
        <route edges="-E21 E22 E29 E34 E35"/>
    </vehicle>
    <vehicle id="292" depart="157.68">
        <route edges="E14 E16 E13 -E3 E0"/>
    </vehicle>
    <vehicle id="293" depart="158.22">
        <route edges="-E27 E25 E26"/>
    </vehicle>
    <vehicle id="294" depart="158.76">
        <route edges="-E23 -E8 -E37 -E34 -E29 -E22 -E40 E18 E7 E19 -E2 E2 E38 -E18"/>
    </vehicle>
    <vehicle id="296" depart="159.84">
        <route edges="-E20 -E40 E18 E7 E19 -E2 E2 E38 -E18 E40 E22 E29 E34 E35"/>
    </vehicle>
    <vehicle id="297" depart="160.38">
        <route edges="-E23 -E8 -E37 -E34 -E29 -E22 -E40 E18 E7 E19 -E2 -E0 E4"/>
    </vehicle>
    <vehicle id="299" depart="161.46">
        <route edges="-E10 E6"/>
    </vehicle>
    <vehicle id="303" depart="163.62">
        <route edges="-E28 E25 E26 -E8 -E37 E35"/>
    </vehicle>
    <vehicle id="304" depart="164.16">
        <route edges="-E11 E7 E19 -E2 -E0 E3 E5 -E9"/>
    </vehicle>
    <vehicle id="307" depart="165.78">
        <route edges="-E28 E25 E26 -E8 -E37 -E34 -E29 -E22 -E40 E18"/>
    </vehicle>
    <vehicle id="313" depart="169.02">
        <route edges="-E17 E7 E19 -E2 -E0 E3 E5 -E9"/>
    </vehicle>
    <vehicle id="315" depart="170.10">
        <route edges="E9 E12 E13 -E3 E0 E2 E38 -E18 E40 E22"/>
    </vehicle>
    <vehicle id="317" depart="171.18">
        <route edges="-E17 E7 E19 -E2 -E0 E3 E5 -E9"/>
    </vehicle>
    <vehicle id="318" depart="171.72">
        <route edges="-E17 E7 E19 -E2 -E0"/>
    </vehicle>
    <vehicle id="319" depart="172.26">
        <route edges="-E31 -E22 -E40 E18 E7 E19 -E2 -E0 E3 E5 E10"/>
    </vehicle>
    <vehicle id="320" depart="172.80">
        <route edges="E9 E12 E13 -E3 E0 E2 E38 -E18 E40 E22 E29 E34 E37 E8 E24"/>
    </vehicle>
    <vehicle id="323" depart="174.42">
        <route edges="E14 E16 E13 -E3 E0 E2 E38 -E18 E40 E22 E29 E34 E37 E8 E24"/>
    </vehicle>
    <vehicle id="324" depart="174.96">
        <route edges="-E28 E25 E26 -E8 -E37 -E34 -E29 -E22 -E40 E18 E7 E19"/>
    </vehicle>
    <vehicle id="325" depart="175.50">
        <route edges="-E17 E7 E19 -E2"/>
    </vehicle>
    <vehicle id="327" depart="176.58">
        <route edges="E1 E2 E38 E17"/>
    </vehicle>
    <vehicle id="331" depart="178.74">
        <route edges="E9 E12 E13 -E3"/>
    </vehicle>
    <vehicle id="332" depart="179.28">
        <route edges="-E36 E25 E26"/>
    </vehicle>
    <vehicle id="333" depart="179.82">
        <route edges="-E36 E25 E26 -E8 -E37 -E34 -E29 -E22 -E40 E18 E7 E19 -E2 -E0 E3 E5 -E9"/>
    </vehicle>
    <vehicle id="334" depart="180.36">
        <route edges="-E28 E25 E26 -E8 -E37 -E34 -E29 -E22 -E40 E18 E7 E19 -E2 E2"/>
    </vehicle>
    <vehicle id="335" depart="180.90">
        <route edges="-E27 E25 E26 -E8 -E37 -E34 -E29 -E22 -E40 E18 E7 E19 -E2 E2 E38"/>
    </vehicle>
    <vehicle id="336" depart="181.44">
        <route edges="E9 E12"/>
    </vehicle>
    <vehicle id="338" depart="182.52">
        <route edges="-E36 E25 E26 -E8 -E37 -E34 -E29 -E22 -E40 E18 E7 E19 -E2 -E0 E3 E5 E6"/>
    </vehicle>
    <vehicle id="342" depart="184.68">
        <route edges="-E10 E12 E13 -E3 E0 E2"/>
    </vehicle>
    <vehicle id="343" depart="185.22">
        <route edges="-E31 -E22 -E40 E18 E11"/>
    </vehicle>
    <vehicle id="347" depart="187.38">
        <route edges="-E36 E27"/>
    </vehicle>
    <vehicle id="349" depart="188.46">
        <route edges="-E27 E25 E26 E23"/>
    </vehicle>
    <vehicle id="353" depart="190.62">
        <route edges="-E36 E25 E26 -E8 -E37 -E34 -E29 -E22 -E40 E18 E7 E19 -E2 E2 E38 -E18 E40 E22 E29 E34 E37 E8 E24"/>
    </vehicle>
    <vehicle id="357" depart="192.78">
        <route edges="-E28 E25 E26 -E8 -E37 -E34 -E29 -E22"/>
    </vehicle>
    <vehicle id="360" depart="194.40">
        <route edges="-E11 E7"/>
    </vehicle>
    <vehicle id="362" depart="195.48">
        <route edges="E9 E12 E13 -E3 E0 E2 E38 -E18 E40 E22 E29 E34 E37 E8"/>
    </vehicle>
    <vehicle id="365" depart="197.10">
        <route edges="-E28 E25 E26 -E8 -E37 -E34 -E29 -E22 -E40 E18 E7 E19 -E2 E2 E38 -E18 E40 E22 E29 E34 E37 E8 E24 E28"/>
    </vehicle>
    <vehicle id="368" depart="198.72">
        <route edges="-E28 E25 E26 -E8 -E37 -E34 -E29"/>
    </vehicle>
    <vehicle id="373" depart="201.42">
        <route edges="E1 E2 E38 -E18 E40 E22 E29 E34 E37 E8 E23"/>
    </vehicle>
    <vehicle id="376" depart="203.04">
        <route edges="-E27 E25 E26 -E8 -E37 -E34 -E29 -E22 -E40 E18 E7 E19 -E2 E2 E38 -E18 E40 E22"/>
    </vehicle>
    <vehicle id="377" depart="203.58">
        <route edges="E9 E12 E13 -E3 E0 E2 E38 -E18 E40 E22 E29 E34 E37 E8 E24 E28"/>
    </vehicle>
    <vehicle id="378" depart="204.12">
        <route edges="-E31 -E22 -E40 E18"/>
    </vehicle>
    <vehicle id="380" depart="205.20">
        <route edges="-E36 E27"/>
    </vehicle>
    <vehicle id="381" depart="205.74">
        <route edges="-E36 E25 E26 -E8"/>
    </vehicle>
    <vehicle id="382" depart="206.28">
        <route edges="-E31 -E22 -E40 E18 E7 E19 -E2 -E0 E3 E5"/>
    </vehicle>
    <vehicle id="383" depart="206.82">
        <route edges="-E27 E25 E26 -E8 -E37 -E34 -E29 -E22 -E40 E18 E7 E19 -E2 -E0 E3"/>
    </vehicle>
    <vehicle id="384" depart="207.36">
        <route edges="-E11 E7"/>
    </vehicle>
    <vehicle id="386" depart="208.44">
        <route edges="-E17 -E18 E40 E22 E29 E34 E37 E8 E23"/>
    </vehicle>
    <vehicle id="388" depart="209.52">
        <route edges="E9 E12 E13 -E3 E0 E2 E38 -E18 E40"/>
    </vehicle>
    <vehicle id="392" depart="211.68">
        <route edges="-E21 E22 E29 E34 E37"/>
    </vehicle>
    <vehicle id="393" depart="212.22">
        <route edges="E9 E12 E13 -E3 E0"/>
    </vehicle>
    <vehicle id="394" depart="212.76">
        <route edges="-E31 -E22 -E40 E18 E17"/>
    </vehicle>
    <vehicle id="396" depart="213.84">
        <route edges="E14 E16 E13 -E3 E0 E2 E38"/>
    </vehicle>
    <vehicle id="397" depart="214.38">
        <route edges="-E21 E22 E29 E34 E35"/>
    </vehicle>
    <vehicle id="398" depart="214.92">
        <route edges="-E27 E25 E26 -E8 -E37 -E34 -E29 -E22 -E40 E18 E7 E19 -E2 -E0 E3 E5"/>
    </vehicle>
    <vehicle id="399" depart="215.46">
        <route edges="-E28 E25 E26 -E8 -E37 -E34 -E29 -E22 -E40 E18 E7 E19 -E2 E2 E38 -E18 E40 E22 E29 E34 E37 E8 E24 E36"/>
    </vehicle>
    <vehicle id="401" depart="216.54">
        <route edges="-E31 E29 E34 E37 E8"/>
    </vehicle>
    <vehicle id="402" depart="217.08">
        <route edges="-E28 E25 E26 -E8 -E37 -E34"/>
    </vehicle>
    <vehicle id="404" depart="218.16">
        <route edges="-E31 E29 E34 E37 E8 E23"/>
    </vehicle>
    <vehicle id="406" depart="219.24">
        <route edges="-E17 E7 E19 -E2 -E0 E3"/>
    </vehicle>
    <vehicle id="407" depart="219.78">
        <route edges="-E31 -E22 -E40 E18 E7 E19 -E2 -E0 E3 E5 -E9"/>
    </vehicle>
    <vehicle id="408" depart="220.32">
        <route edges="-E36 E25 E26 -E8 -E37 -E34 -E29 -E22 -E40 E18 E7 E19 -E2"/>
    </vehicle>
    <vehicle id="409" depart="220.86">
        <route edges="-E36 E25 E26 -E8 -E37 -E34 -E29 E31"/>
    </vehicle>
    <vehicle id="410" depart="221.40">
        <route edges="E1 E2 E38 E17"/>
    </vehicle>
    <vehicle id="414" depart="223.56">
        <route edges="-E31 -E22 -E40 E18 E7 E19 -E2 E2 E38"/>
    </vehicle>
    <vehicle id="416" depart="224.64">
        <route edges="-E28 E25 E26 -E8 -E37 -E34 -E29 -E22 -E40 E18 E7 E19 -E2 E2"/>
    </vehicle>
    <vehicle id="419" depart="226.26">
        <route edges="-E28 E25 E26 -E8 -E37 -E34 -E29 -E22 -E40 E18 E7"/>
    </vehicle>
    <vehicle id="420" depart="226.80">
        <route edges="-E23 -E8 -E37 -E34 -E29 -E22 -E40 E18 E7 E19 -E2 -E0 E3"/>
    </vehicle>
    <vehicle id="422" depart="227.88">
        <route edges="E1 E2 E38"/>
    </vehicle>
    <vehicle id="425" depart="229.50">
        <route edges="E14 E16 E13 -E3 E0 E2 E38 -E18"/>
    </vehicle>
    <vehicle id="427" depart="230.58">
        <route edges="E14 E16 E13 -E3 E0 E2 E38 -E18 E40 E22 E29 E34 E37 E8"/>
    </vehicle>
    <vehicle id="428" depart="231.12">
        <route edges="-E36 E25 E26 -E8 -E37 -E34 -E29 -E22 -E40 E18 E7 E19"/>
    </vehicle>
    <vehicle id="432" depart="233.28">
        <route edges="-E10 E12 E13 -E3 E0 E2 E38 -E18 E40 E22 E29 E34 E35"/>
    </vehicle>
    <vehicle id="434" depart="234.36">
        <route edges="-E17 -E18 E40 E22"/>
    </vehicle>
    <vehicle id="435" depart="234.90">
        <route edges="-E31 E29 E34 E35"/>
    </vehicle>
    <vehicle id="438" depart="236.52">
        <route edges="-E20 -E40 E18 E7 E19 -E2 E2 E38 -E18 E40"/>
    </vehicle>
    <vehicle id="439" depart="237.06">
        <route edges="-E17 E7 E19 -E2 E2"/>
    </vehicle>
    <vehicle id="440" depart="237.60">
        <route edges="-E20 -E40 E18 E7 E19 -E2 -E0 E3 E5 E10"/>
    </vehicle>
    <vehicle id="441" depart="238.14">
        <route edges="-E10 E12 E13 -E3 E0 E2 E38 -E18 E40 E22 E29 E34 E35"/>
    </vehicle>
    <vehicle id="442" depart="238.68">
        <route edges="E14 E16 E13 -E3 E0 E2 E38 -E18 E40 E22 E29"/>
    </vehicle>
    <vehicle id="443" depart="239.22">
        <route edges="-E17 E7 E19"/>
    </vehicle>
    <vehicle id="446" depart="240.84">
        <route edges="-E20 -E40 E18 E7 E19 -E2 E2 E38 -E18 E40 E22 E29 E34 E37"/>
    </vehicle>
    <vehicle id="447" depart="241.38">
        <route edges="-E17 E7 E19 -E2 E2 E38 E17"/>
    </vehicle>
    <vehicle id="450" depart="243.00">
        <route edges="E9 E12 E13 -E3 E0 E2 E38 E11"/>
    </vehicle>
    <vehicle id="451" depart="243.54">
        <route edges="E9 E12 E13 -E3 E0 E2 E38 -E18 E40 E22 E29 E34 E37 E8 E24 E28"/>
    </vehicle>
    <vehicle id="452" depart="244.08">
        <route edges="-E21 E22 E29 E34 E37 E8 E24"/>
    </vehicle>
    <vehicle id="453" depart="244.62">
        <route edges="-E33 E32"/>
    </vehicle>
    <vehicle id="455" depart="245.70">
        <route edges="-E28 E25 E26 -E8 -E37 -E34 -E29 -E22 -E40 E18 E7 E19 -E2 E2 E38 -E18 E40"/>
    </vehicle>
    <vehicle id="456" depart="246.24">
        <route edges="-E21 E22 E29 E34 E35"/>
    </vehicle>
    <vehicle id="463" depart="250.02">
        <route edges="-E27 E25"/>
    </vehicle>
    <vehicle id="467" depart="252.18">
        <route edges="-E31 -E22 -E40 E18 E7"/>
    </vehicle>
    <vehicle id="468" depart="252.72">
        <route edges="-E28 E25 E26 -E8 -E37 -E34 -E29 -E22 -E40 E18 E7 E19 -E2 E2 E38 -E18 E40"/>
    </vehicle>
    <vehicle id="469" depart="253.26">
        <route edges="E1 -E0 E3 E5 E10"/>
    </vehicle>
    <vehicle id="474" depart="255.96">
        <route edges="E9 E12 E13 -E3 E0 E2 E38"/>
    </vehicle>
    <vehicle id="476" depart="257.04">
        <route edges="E9 E12 E13 -E3 E0 E2 E38 -E18 E40 E22 E29 E34 E35"/>
    </vehicle>
    <vehicle id="477" depart="257.58">
        <route edges="-E23 -E8 -E37 E35"/>
    </vehicle>
    <vehicle id="478" depart="258.12">
        <route edges="-E10 E12 E13 -E3 E0 E2 E38 -E18 E40 E22 E29 E34 E37 E8 E23"/>
    </vehicle>
    <vehicle id="479" depart="258.66">
        <route edges="-E27 E25 E26 -E8 -E37 -E34 -E29 -E22 -E40 E18 E7 E19 -E2 E2 E38 -E18 E40 E22 E29"/>
    </vehicle>
    <vehicle id="481" depart="259.74">
        <route edges="E1 -E0 E3 E5 E6"/>
    </vehicle>
    <vehicle id="482" depart="260.28">
        <route edges="-E11 E7 E19 -E2 -E0 E3 E5 -E9"/>
    </vehicle>
    <vehicle id="483" depart="260.82">
        <route edges="-E10 E12 E13 -E3 E4"/>
    </vehicle>
    <vehicle id="484" depart="261.36">
        <route edges="-E31 -E22 -E40 E18 E7 E19 -E2 -E0 E3 E5"/>
    </vehicle>