<?xml version="1.0" encoding="UTF-8"?>

<!-- generated on 2022-05-30 14:21:36 by Eclipse SUMO GUI Version 1.13.0
-->

<configuration xmlns:xsi="http://www.w3.org/2001/XMLSchema-instance" xsi:noNamespaceSchemaLocation="http://sumo.dlr.de/xsd/sumoConfiguration.xsd">

    <input>
        <net-file value="C:\Users\Lance\Desktop\All\Roxas Blvd Scratch\Roxas.net.xml"/>
        <route-files value="C:\Users\Lance\Desktop\All\Roxas Blvd Scratch\Roxas.rou.xml"/>
    </input>

</configuration>

