<?xml version="1.0" encoding="UTF-8"?>

<!-- generated on 2022-06-04 13:59:11 by Eclipse SUMO netedit Version 1.10.0
<configuration xmlns:xsi="http://www.w3.org/2001/XMLSchema-instance" xsi:noNamespaceSchemaLocation="http://sumo.dlr.de/xsd/netconvertConfiguration.xsd">

    <input>
        <sumo-net-file value="Roxas.net.xml"/>
    </input>

    <output>
        <output-file value="Roxas.net.xml"/>
    </output>

    <processing>
        <geometry.min-radius.fix.railways value="false"/>
        <geometry.max-grade.fix value="false"/>
        <offset.disable-normalization value="true"/>
        <lefthand value="false"/>
    </processing>

    <junctions>
        <no-turnarounds value="true"/>
        <junctions.corner-detail value="5"/>
        <junctions.limit-turn-speed value="5.5"/>
        <rectangular-lane-cut value="false"/>
    </junctions>

    <pedestrian>
        <walkingareas value="false"/>
    </pedestrian>

    <report>
        <aggregate-warnings value="5"/>
    </report>

</configuration>
-->

<net version="1.9" junctionCornerDetail="5" limitTurnSpeed="5.50" xmlns:xsi="http://www.w3.org/2001/XMLSchema-instance" xsi:noNamespaceSchemaLocation="http://sumo.dlr.de/xsd/net_file.xsd">

    <location netOffset="0.00,0.00" convBoundary="-4400.00,-3000.00,4500.00,40800.00" origBoundary="-10000000000.00,-10000000000.00,10000000000.00,10000000000.00" projParameter="!"/>

    <edge id=":Airport_0" function="internal">
        <lane id=":Airport_0_0" index="0" speed="16.67" length="17.60" shape="-114.40,213.60 -114.40,196.00"/>
        <lane id=":Airport_0_1" index="1" speed="16.67" length="17.60" shape="-111.20,213.60 -111.20,196.00"/>
        <lane id=":Airport_0_2" index="2" speed="16.67" length="17.60" shape="-108.00,213.60 -108.00,196.00"/>
        <lane id=":Airport_0_3" index="3" speed="16.67" length="17.60" shape="-104.80,213.60 -104.80,196.00"/>
    </edge>
    <edge id=":Airport_4" function="internal">
        <lane id=":Airport_4_0" index="0" speed="7.61" length="25.70" shape="-104.80,213.60 -100.00,206.40 -95.20,204.00 -90.40,206.40 -85.60,213.60"/>
        <lane id=":Airport_4_1" index="1" speed="7.00" length="25.70" shape="-104.80,213.60 -100.80,207.60 -96.80,205.60 -92.80,207.60 -88.80,213.60"/>
    </edge>
    <edge id=":Airport_6" function="internal">
        <lane id=":Airport_6_0" index="0" speed="16.67" length="17.60" shape="-101.60,213.60 -101.60,196.00"/>
    </edge>
    <edge id=":Airport_7" function="internal">
        <lane id=":Airport_7_0" index="0" speed="5.58" length="9.35" shape="-101.60,213.60 -99.20,210.00 -96.80,208.80 -94.40,210.00 -92.00,213.60"/>
        <lane id=":Airport_7_1" index="1" speed="4.72" length="9.35" shape="-101.60,213.60 -100.00,211.20 -98.40,210.40 -96.80,211.20 -95.20,213.60"/>
        <lane id=":Airport_7_2" index="2" speed="3.65" length="9.35" shape="-101.60,213.60 -100.80,212.40 -100.00,212.00 -99.20,212.40 -98.40,213.60"/>
    </edge>
    <edge id=":Airport_10" function="internal">
        <lane id=":Airport_10_0" index="0" speed="6.51" length="9.03" shape="-73.60,208.00 -76.05,208.35 -77.80,209.40 -78.85,211.15 -79.20,213.60"/>
        <lane id=":Airport_10_1" index="1" speed="8.00" length="14.19" shape="-73.60,204.80 -77.45,205.35 -80.20,207.00 -81.85,209.75 -82.40,213.60"/>
        <lane id=":Airport_10_2" index="2" speed="8.67" length="16.85" shape="-73.60,204.80 -78.85,205.35 -82.60,207.00 -84.85,209.75 -85.60,213.60"/>
        <lane id=":Airport_10_3" index="3" speed="9.32" length="19.63" shape="-73.60,204.80 -80.25,205.35 -85.00,207.00 -87.85,209.75 -88.80,213.60"/>
        <lane id=":Airport_10_4" index="4" speed="9.94" length="22.48" shape="-73.60,204.80 -81.65,205.35 -87.40,207.00 -90.85,209.75 -92.00,213.60"/>
        <lane id=":Airport_10_5" index="5" speed="10.54" length="25.39" shape="-73.60,204.80 -83.05,205.35 -89.80,207.00 -93.85,209.75 -95.20,213.60"/>
        <lane id=":Airport_10_6" index="6" speed="11.11" length="28.34" shape="-73.60,204.80 -84.45,205.35 -92.20,207.00 -96.85,209.75 -98.40,213.60"/>
    </edge>
    <edge id=":Airport_17" function="internal">
        <lane id=":Airport_17_0" index="0" speed="12.96" length="38.91" shape="-73.60,201.60 -90.05,201.25 -101.80,200.20 -108.85,198.45 -111.20,196.00"/>
        <lane id=":Airport_17_1" index="1" speed="12.44" length="35.80" shape="-73.60,201.60 -88.65,201.25 -99.40,200.20 -105.85,198.45 -108.00,196.00"/>
        <lane id=":Airport_17_2" index="2" speed="11.91" length="32.70" shape="-73.60,201.60 -87.25,201.25 -97.00,200.20 -102.85,198.45 -104.80,196.00"/>
        <lane id=":Airport_17_3" index="3" speed="11.35" length="29.61" shape="-73.60,201.60 -85.85,201.25 -94.60,200.20 -99.85,198.45 -101.60,196.00"/>
    </edge>
    <edge id=":Airport_21" function="internal">
        <lane id=":Airport_21_0" index="0" speed="16.67" length="17.60" shape="-79.20,196.00 -79.20,213.60"/>
        <lane id=":Airport_21_1" index="1" speed="16.67" length="17.60" shape="-82.40,196.00 -82.40,213.60"/>
        <lane id=":Airport_21_2" index="2" speed="16.67" length="17.60" shape="-85.60,196.00 -85.60,213.60"/>
        <lane id=":Airport_21_3" index="3" speed="16.67" length="17.60" shape="-88.80,196.00 -88.80,213.60"/>
        <lane id=":Airport_21_4" index="4" speed="16.67" length="17.60" shape="-92.00,196.00 -92.00,213.60"/>
        <lane id=":Airport_21_5" index="5" speed="16.67" length="17.60" shape="-95.20,196.00 -95.20,213.60"/>
        <lane id=":Airport_21_6" index="6" speed="16.67" length="17.60" shape="-98.40,196.00 -98.40,213.60"/>
    </edge>
    <edge id=":Edsa_0" function="internal">
        <lane id=":Edsa_0_0" index="0" speed="6.51" length="9.03" shape="-111.20,2523.20 -111.55,2520.75 -112.60,2519.00 -114.35,2517.95 -116.80,2517.60"/>
        <lane id=":Edsa_0_1" index="1" speed="7.33" length="11.73" shape="-111.20,2523.20 -111.55,2519.35 -112.60,2516.60 -114.35,2514.95 -116.80,2514.40"/>
        <lane id=":Edsa_0_2" index="2" speed="8.10" length="14.57" shape="-111.20,2523.20 -111.55,2517.95 -112.60,2514.20 -114.35,2511.95 -116.80,2511.20"/>
    </edge>
    <edge id=":Edsa_3" function="internal">
        <lane id=":Edsa_3_0" index="0" speed="16.67" length="46.51" shape="-108.00,2523.20 -104.80,2476.80"/>
        <lane id=":Edsa_3_1" index="1" speed="16.67" length="46.51" shape="-104.80,2523.20 -101.60,2476.80"/>
    </edge>
    <edge id=":Edsa_5" function="internal">
        <lane id=":Edsa_5_0" index="0" speed="14.00" length="45.63" shape="-101.60,2523.20 -100.25,2508.15 -96.20,2497.40 -89.45,2490.95 -80.00,2488.80"/>
        <lane id=":Edsa_5_1" index="1" speed="13.15" length="40.13" shape="-101.60,2523.20 -100.25,2510.95 -96.20,2502.20 -89.45,2496.95 -80.00,2495.20"/>
        <lane id=":Edsa_5_2" index="2" speed="12.72" length="37.45" shape="-101.60,2523.20 -100.25,2512.35 -96.20,2504.60 -89.45,2499.95 -80.00,2498.40"/>
    </edge>
    <edge id=":Edsa_8" function="internal">
        <lane id=":Edsa_8_0" index="0" speed="6.51" length="9.03" shape="-80.00,2517.60 -82.45,2517.95 -84.20,2519.00 -85.25,2520.75 -85.60,2523.20"/>
    </edge>
    <edge id=":Edsa_9" function="internal">
        <lane id=":Edsa_9_0" index="0" speed="16.67" length="36.80" shape="-80.00,2517.60 -116.80,2517.60"/>
        <lane id=":Edsa_9_1" index="1" speed="16.67" length="36.80" shape="-80.00,2514.40 -116.80,2514.40"/>
        <lane id=":Edsa_9_2" index="2" speed="16.67" length="36.80" shape="-80.00,2511.20 -116.80,2511.20"/>
        <lane id=":Edsa_9_3" index="3" speed="16.67" length="36.80" shape="-80.00,2508.00 -116.80,2508.00"/>
        <lane id=":Edsa_9_4" index="4" speed="16.67" length="36.80" shape="-80.00,2504.80 -116.80,2504.80"/>
        <lane id=":Edsa_9_5" index="5" speed="16.67" length="36.80" shape="-80.00,2501.60 -116.80,2501.60"/>
    </edge>
    <edge id=":Edsa_15" function="internal">
        <lane id=":Edsa_15_0" index="0" speed="12.72" length="37.45" shape="-80.00,2501.60 -89.45,2500.05 -96.20,2495.40 -100.25,2487.65 -101.60,2476.80"/>
    </edge>
    <edge id=":Edsa_16" function="internal">
        <lane id=":Edsa_16_0" index="0" speed="7.33" length="11.73" shape="-88.80,2476.80 -88.25,2479.25 -86.60,2481.00 -83.85,2482.05 -80.00,2482.40"/>
        <lane id=":Edsa_16_1" index="1" speed="8.00" length="14.19" shape="-88.80,2476.80 -88.25,2480.65 -86.60,2483.40 -83.85,2485.05 -80.00,2485.60"/>
    </edge>
    <edge id=":Edsa_18" function="internal">
        <lane id=":Edsa_18_0" index="0" speed="16.67" length="46.43" shape="-88.80,2476.80 -88.80,2523.20"/>
        <lane id=":Edsa_18_1" index="1" speed="16.67" length="46.43" shape="-92.00,2476.80 -92.00,2523.20"/>
        <lane id=":Edsa_18_2" index="2" speed="16.67" length="46.43" shape="-95.20,2476.80 -95.20,2523.20"/>
        <lane id=":Edsa_18_3" index="3" speed="16.67" length="46.43" shape="-95.20,2476.80 -98.40,2523.20"/>
    </edge>
    <edge id=":Edsa_22" function="internal">
        <lane id=":Edsa_22_0" index="0" speed="12.76" length="37.73" shape="-98.40,2476.80 -99.55,2489.05 -103.00,2497.80 -108.75,2503.05 -116.80,2504.80"/>
        <lane id=":Edsa_22_1" index="1" speed="12.30" length="34.99" shape="-98.40,2476.80 -99.55,2487.65 -103.00,2495.40 -108.75,2500.05 -116.80,2501.60"/>
    </edge>
    <edge id=":Edsa_24" function="internal">
        <lane id=":Edsa_24_0" index="0" speed="8.10" length="14.57" shape="-116.80,2482.40 -111.55,2482.05 -107.80,2481.00 -105.55,2479.25 -104.80,2476.80"/>
    </edge>
    <edge id=":Edsa_25" function="internal">
        <lane id=":Edsa_25_0" index="0" speed="16.67" length="36.80" shape="-116.80,2482.40 -80.00,2482.40"/>
        <lane id=":Edsa_25_1" index="1" speed="16.67" length="36.80" shape="-116.80,2485.60 -80.00,2485.60"/>
        <lane id=":Edsa_25_2" index="2" speed="16.67" length="36.80" shape="-116.80,2488.80 -80.00,2488.80"/>
        <lane id=":Edsa_25_3" index="3" speed="16.67" length="36.80" shape="-116.80,2492.00 -80.00,2492.00"/>
        <lane id=":Edsa_25_4" index="4" speed="16.67" length="36.80" shape="-116.80,2495.20 -80.00,2495.20"/>
        <lane id=":Edsa_25_5" index="5" speed="16.67" length="36.80" shape="-116.80,2498.40 -80.00,2498.40"/>
    </edge>
    <edge id=":Edsa_31" function="internal">
        <lane id=":Edsa_31_0" index="0" speed="12.72" length="37.45" shape="-116.80,2498.40 -107.35,2499.95 -100.60,2504.60 -96.55,2512.35 -95.20,2523.20"/>
        <lane id=":Edsa_31_1" index="1" speed="12.30" length="34.99" shape="-116.80,2498.40 -108.75,2499.95 -103.00,2504.60 -99.55,2512.35 -98.40,2523.20"/>
    </edge>
    <edge id=":J0_0" function="internal">
        <lane id=":J0_0_0" index="0" speed="16.67" length="11.32" shape="-114.40,-196.00 -114.40,-207.20"/>
        <lane id=":J0_0_1" index="1" speed="16.67" length="11.32" shape="-111.20,-196.00 -111.20,-207.20"/>
        <lane id=":J0_0_2" index="2" speed="16.67" length="11.32" shape="-108.00,-196.00 -108.00,-207.20"/>
        <lane id=":J0_0_3" index="3" speed="16.67" length="11.32" shape="-104.80,-196.00 -104.80,-207.20"/>
        <lane id=":J0_0_4" index="4" speed="16.67" length="11.32" shape="-104.80,-196.00 -104.30,-199.39 -103.20,-201.60 -102.10,-203.81 -101.60,-207.20"/>
    </edge>
    <edge id=":J0_5" function="internal">
        <lane id=":J0_5_0" index="0" speed="11.35" length="2.75" shape="-101.60,-196.00 -100.00,-198.24"/>
    </edge>
    <edge id=":J0_14" function="internal">
        <lane id=":J0_14_0" index="0" speed="11.35" length="26.86" shape="-100.00,-198.24 -99.85,-198.45 -94.60,-200.20 -85.85,-201.25 -73.60,-201.60"/>
    </edge>
    <edge id=":J0_6" function="internal">
        <lane id=":J0_6_0" index="0" speed="6.51" length="9.03" shape="-79.20,-207.20 -78.85,-204.75 -77.80,-203.00 -76.05,-201.95 -73.60,-201.60"/>
    </edge>
    <edge id=":J0_7" function="internal">
        <lane id=":J0_7_0" index="0" speed="16.67" length="11.20" shape="-79.20,-207.20 -79.20,-196.00"/>
        <lane id=":J0_7_1" index="1" speed="16.67" length="11.20" shape="-82.40,-207.20 -82.40,-196.00"/>
        <lane id=":J0_7_2" index="2" speed="16.67" length="11.20" shape="-85.60,-207.20 -85.60,-196.00"/>
        <lane id=":J0_7_3" index="3" speed="16.67" length="11.20" shape="-88.80,-207.20 -88.80,-196.00"/>
        <lane id=":J0_7_4" index="4" speed="16.67" length="11.20" shape="-92.00,-207.20 -92.00,-196.00"/>
        <lane id=":J0_7_5" index="5" speed="16.67" length="11.20" shape="-95.20,-207.20 -95.20,-196.00"/>
        <lane id=":J0_7_6" index="6" speed="16.67" length="11.20" shape="-98.40,-207.20 -98.40,-196.00"/>
    </edge>
    <edge id=":J12_0" function="internal">
        <lane id=":J12_0_0" index="0" speed="6.99" length="4.77" shape="-74.20,-1365.31 -75.03,-1364.42 -75.63,-1363.42 -75.98,-1362.31 -76.10,-1361.10"/>
        <lane id=":J12_0_1" index="1" speed="8.62" length="7.49" shape="-76.31,-1367.71 -77.62,-1366.31 -78.56,-1364.74 -79.12,-1363.00 -79.30,-1361.09"/>
        <lane id=":J12_0_2" index="2" speed="9.99" length="10.21" shape="-78.42,-1370.11 -80.21,-1368.21 -81.48,-1366.07 -82.25,-1363.69 -82.50,-1361.09"/>
        <lane id=":J12_0_3" index="3" speed="11.19" length="12.94" shape="-80.53,-1372.52 -82.80,-1370.10 -84.41,-1367.39 -85.38,-1364.39 -85.70,-1361.09"/>
    </edge>
    <edge id=":J12_4" function="internal">
        <lane id=":J12_4_0" index="0" speed="15.28" length="9.47" shape="-88.87,-1370.54 -88.90,-1361.09"/>
        <lane id=":J12_4_1" index="1" speed="15.28" length="9.47" shape="-92.07,-1370.55 -92.10,-1361.09"/>
        <lane id=":J12_4_2" index="2" speed="15.28" length="9.47" shape="-95.27,-1370.56 -95.30,-1361.08"/>
        <lane id=":J12_4_3" index="3" speed="15.28" length="9.47" shape="-98.47,-1370.57 -98.50,-1361.08"/>
    </edge>
    <edge id=":J13_0" function="internal">
        <lane id=":J13_0_0" index="0" speed="13.21" length="14.19" shape="-41.33,-1392.33 -45.20,-1391.73 -47.49,-1390.08 -49.46,-1387.59 -52.38,-1384.47"/>
    </edge>
    <edge id=":J13_1" function="internal">
        <lane id=":J13_1_0" index="0" speed="15.28" length="18.85" shape="-41.33,-1395.53 -60.16,-1395.47"/>
        <lane id=":J13_1_1" index="1" speed="15.28" length="18.85" shape="-41.33,-1398.73 -60.18,-1398.67"/>
    </edge>
    <edge id=":J18_0" function="internal">
        <lane id=":J18_0_0" index="0" speed="16.67" length="9.63" shape="-104.80,2204.00 -105.80,2201.31 -108.00,2200.00 -110.20,2198.69 -111.20,2196.00"/>
        <lane id=":J18_0_1" index="1" speed="16.67" length="9.63" shape="-101.60,2204.00 -102.60,2201.31 -104.80,2200.00 -107.00,2198.69 -108.00,2196.00"/>
        <lane id=":J18_0_2" index="2" speed="16.67" length="9.63" shape="-101.60,2204.00 -102.10,2201.54 -103.20,2200.00 -104.30,2198.46 -104.80,2196.00"/>
        <lane id=":J18_0_3" index="3" speed="16.67" length="9.63" shape="-101.60,2204.00 -101.60,2196.00"/>
    </edge>
    <edge id=":J20_0" function="internal">
        <lane id=":J20_0_0" index="0" speed="16.67" length="8.81" shape="-114.40,3004.00 -113.90,3001.54 -112.80,3000.00 -111.70,2998.46 -111.20,2996.00"/>
        <lane id=":J20_0_1" index="1" speed="16.67" length="8.81" shape="-111.20,3004.00 -110.70,3001.54 -109.60,3000.00 -108.50,2998.46 -108.00,2996.00"/>
        <lane id=":J20_0_2" index="2" speed="16.67" length="8.81" shape="-108.00,3004.00 -107.50,3001.54 -106.40,3000.00 -105.30,2998.46 -104.80,2996.00"/>
        <lane id=":J20_0_3" index="3" speed="16.67" length="8.81" shape="-104.80,3004.00 -104.30,3001.54 -103.20,3000.00 -102.10,2998.46 -101.60,2996.00"/>
    </edge>
    <edge id=":J20_4" function="internal">
        <lane id=":J20_4_0" index="0" speed="16.67" length="8.81" shape="-85.60,2996.00 -86.10,2998.46 -87.20,3000.00 -88.30,3001.54 -88.80,3004.00"/>
        <lane id=":J20_4_1" index="1" speed="16.67" length="8.81" shape="-88.80,2996.00 -89.30,2998.46 -90.40,3000.00 -91.50,3001.54 -92.00,3004.00"/>
        <lane id=":J20_4_2" index="2" speed="16.67" length="8.81" shape="-92.00,2996.00 -92.50,2998.46 -93.60,3000.00 -94.70,3001.54 -95.20,3004.00"/>
        <lane id=":J20_4_3" index="3" speed="16.67" length="8.81" shape="-95.20,2996.00 -95.70,2998.46 -96.80,3000.00 -97.90,3001.54 -98.40,3004.00"/>
    </edge>
    <edge id=":J25_0" function="internal">
        <lane id=":J25_0_0" index="0" speed="15.28" length="10.04" shape="-111.20,32104.00 -112.20,32101.31 -114.40,32100.00 -116.60,32098.69 -117.60,32096.00"/>
        <lane id=":J25_0_1" index="1" speed="15.28" length="10.04" shape="-108.00,32104.00 -109.00,32101.31 -111.20,32100.00 -113.40,32098.69 -114.40,32096.00"/>
        <lane id=":J25_0_2" index="2" speed="15.28" length="10.04" shape="-104.80,32104.00 -105.80,32101.31 -108.00,32100.00 -110.20,32098.69 -111.20,32096.00"/>
        <lane id=":J25_0_3" index="3" speed="15.28" length="10.04" shape="-101.60,32104.00 -102.60,32101.31 -104.80,32100.00 -107.00,32098.69 -108.00,32096.00"/>
        <lane id=":J25_0_4" index="4" speed="15.28" length="10.04" shape="-101.60,32104.00 -102.10,32101.54 -103.20,32100.00 -104.30,32098.46 -104.80,32096.00"/>
        <lane id=":J25_0_5" index="5" speed="15.28" length="10.04" shape="-101.60,32104.00 -101.60,32096.00"/>
    </edge>
    <edge id=":J29_0" function="internal">
        <lane id=":J29_0_0" index="0" speed="16.67" length="0.10" shape="-111.20,11700.00 -111.20,11700.00"/>
        <lane id=":J29_0_1" index="1" speed="16.67" length="0.10" shape="-108.00,11700.00 -108.00,11700.00"/>
        <lane id=":J29_0_2" index="2" speed="16.67" length="0.10" shape="-104.80,11700.00 -104.80,11700.00"/>
        <lane id=":J29_0_3" index="3" speed="16.67" length="0.10" shape="-101.60,11700.00 -101.60,11700.00"/>
    </edge>
    <edge id=":J29_4" function="internal">
        <lane id=":J29_4_0" index="0" speed="15.28" length="0.10" shape="-88.80,11700.00 -88.80,11700.00"/>
        <lane id=":J29_4_1" index="1" speed="15.28" length="0.10" shape="-92.00,11700.00 -92.00,11700.00"/>
        <lane id=":J29_4_2" index="2" speed="15.28" length="0.10" shape="-95.20,11700.00 -95.20,11700.00"/>
        <lane id=":J29_4_3" index="3" speed="15.28" length="0.10" shape="-98.40,11700.00 -98.40,11700.00"/>
    </edge>
    <edge id=":J3_0" function="internal">
        <lane id=":J3_0_0" index="0" speed="16.67" length="8.64" shape="-111.20,1204.00 -111.70,1201.54 -112.80,1200.00 -113.90,1198.46 -114.40,1196.00"/>
        <lane id=":J3_0_1" index="1" speed="16.67" length="8.64" shape="-108.00,1204.00 -108.50,1201.54 -109.60,1200.00 -110.70,1198.46 -111.20,1196.00"/>
        <lane id=":J3_0_2" index="2" speed="16.67" length="8.64" shape="-104.80,1204.00 -105.30,1201.54 -106.40,1200.00 -107.50,1198.46 -108.00,1196.00"/>
        <lane id=":J3_0_3" index="3" speed="16.67" length="8.64" shape="-101.60,1204.00 -102.10,1201.54 -103.20,1200.00 -104.30,1198.46 -104.80,1196.00"/>
        <lane id=":J3_0_4" index="4" speed="16.67" length="8.64" shape="-101.60,1204.00 -101.60,1196.00"/>
    </edge>
    <edge id=":J3_5" function="internal">
        <lane id=":J3_5_0" index="0" speed="16.67" length="13.61" shape="-79.20,1196.00 -80.70,1199.01 -84.00,1200.00 -87.30,1200.99 -88.80,1204.00"/>
        <lane id=":J3_5_1" index="1" speed="16.67" length="13.61" shape="-82.40,1196.00 -83.90,1199.01 -87.20,1200.00 -90.50,1200.99 -92.00,1204.00"/>
        <lane id=":J3_5_2" index="2" speed="16.67" length="13.61" shape="-85.60,1196.00 -87.10,1199.01 -90.40,1200.00 -93.70,1200.99 -95.20,1204.00"/>
        <lane id=":J3_5_3" index="3" speed="16.67" length="13.61" shape="-88.80,1196.00 -90.30,1199.01 -93.60,1200.00 -96.90,1200.99 -98.40,1204.00"/>
    </edge>
    <edge id=":J38_0" function="internal">
        <lane id=":J38_0_0" index="0" speed="15.28" length="8.64" shape="-111.20,28604.00 -111.70,28601.54 -112.80,28600.00 -113.90,28598.46 -114.40,28596.00"/>
        <lane id=":J38_0_1" index="1" speed="15.28" length="8.64" shape="-108.00,28604.00 -108.50,28601.54 -109.60,28600.00 -110.70,28598.46 -111.20,28596.00"/>
        <lane id=":J38_0_2" index="2" speed="15.28" length="8.64" shape="-104.80,28604.00 -105.30,28601.54 -106.40,28600.00 -107.50,28598.46 -108.00,28596.00"/>
        <lane id=":J38_0_3" index="3" speed="15.28" length="8.64" shape="-101.60,28604.00 -102.10,28601.54 -103.20,28600.00 -104.30,28598.46 -104.80,28596.00"/>
        <lane id=":J38_0_4" index="4" speed="15.28" length="8.64" shape="-101.60,28604.00 -101.60,28596.00"/>
    </edge>
    <edge id=":J38_5" function="internal">
        <lane id=":J38_5_0" index="0" speed="13.89" length="8.00" shape="-88.80,28596.00 -88.80,28604.00"/>
        <lane id=":J38_5_1" index="1" speed="13.89" length="8.00" shape="-92.00,28596.00 -92.00,28604.00"/>
        <lane id=":J38_5_2" index="2" speed="13.89" length="8.00" shape="-95.20,28596.00 -95.20,28604.00"/>
        <lane id=":J38_5_3" index="3" speed="13.89" length="8.00" shape="-98.40,28596.00 -98.40,28604.00"/>
    </edge>
    <edge id=":J4_0" function="internal">
        <lane id=":J4_0_0" index="0" speed="16.67" length="10.17" shape="-114.40,-1196.00 -115.40,-1198.69 -117.60,-1200.01 -119.80,-1201.32 -120.80,-1204.01"/>
        <lane id=":J4_0_1" index="1" speed="16.67" length="10.17" shape="-111.20,-1196.00 -112.20,-1198.69 -114.40,-1200.01 -116.60,-1201.32 -117.60,-1204.01"/>
        <lane id=":J4_0_2" index="2" speed="16.67" length="10.17" shape="-108.00,-1196.00 -109.00,-1198.69 -111.20,-1200.01 -113.40,-1201.32 -114.40,-1204.01"/>
        <lane id=":J4_0_3" index="3" speed="16.67" length="10.17" shape="-104.80,-1196.00 -105.80,-1198.69 -108.00,-1200.01 -110.20,-1201.32 -111.20,-1204.01"/>
        <lane id=":J4_0_4" index="4" speed="16.67" length="10.17" shape="-101.60,-1196.00 -102.60,-1198.69 -104.80,-1200.01 -107.00,-1201.32 -108.00,-1204.01"/>
        <lane id=":J4_0_5" index="5" speed="16.67" length="10.17" shape="-101.60,-1196.00 -102.10,-1198.47 -103.20,-1200.01 -104.30,-1201.55 -104.80,-1204.01"/>
        <lane id=":J4_0_6" index="6" speed="16.67" length="10.17" shape="-101.60,-1196.00 -101.60,-1204.01"/>
    </edge>
    <edge id=":J4_7" function="internal">
        <lane id=":J4_7_0" index="0" speed="16.67" length="8.82" shape="-76.00,-1204.01 -76.50,-1201.55 -77.60,-1200.01 -78.70,-1198.47 -79.20,-1196.00"/>
        <lane id=":J4_7_1" index="1" speed="16.67" length="8.82" shape="-79.20,-1204.01 -79.70,-1201.55 -80.80,-1200.01 -81.90,-1198.47 -82.40,-1196.00"/>
        <lane id=":J4_7_2" index="2" speed="16.67" length="8.82" shape="-82.40,-1204.01 -82.90,-1201.55 -84.00,-1200.01 -85.10,-1198.47 -85.60,-1196.00"/>
        <lane id=":J4_7_3" index="3" speed="16.67" length="8.82" shape="-85.60,-1204.01 -86.10,-1201.55 -87.20,-1200.01 -88.30,-1198.47 -88.80,-1196.00"/>
        <lane id=":J4_7_4" index="4" speed="16.67" length="8.82" shape="-88.80,-1204.01 -89.30,-1201.55 -90.40,-1200.01 -91.50,-1198.47 -92.00,-1196.00"/>
        <lane id=":J4_7_5" index="5" speed="16.67" length="8.82" shape="-92.00,-1204.01 -92.50,-1201.55 -93.60,-1200.01 -94.70,-1198.47 -95.20,-1196.00"/>
        <lane id=":J4_7_6" index="6" speed="16.67" length="8.82" shape="-95.20,-1204.01 -95.70,-1201.55 -96.80,-1200.01 -97.90,-1198.47 -98.40,-1196.00"/>
    </edge>
    <edge id=":Kalaw_0" function="internal">
        <lane id=":Kalaw_0_0" index="0" speed="15.28" length="33.60" shape="-111.20,38016.80 -111.20,37983.20"/>
        <lane id=":Kalaw_0_1" index="1" speed="15.28" length="33.60" shape="-108.00,38016.80 -108.00,37983.20"/>
        <lane id=":Kalaw_0_2" index="2" speed="15.28" length="33.60" shape="-104.80,38016.80 -104.80,37983.20"/>
    </edge>
    <edge id=":Kalaw_3" function="internal">
        <lane id=":Kalaw_3_0" index="0" speed="12.76" length="37.73" shape="-101.60,38016.80 -100.45,38004.55 -97.00,37995.80 -91.25,37990.55 -83.20,37988.80"/>
        <lane id=":Kalaw_3_1" index="1" speed="12.30" length="34.99" shape="-101.60,38016.80 -100.45,38005.95 -97.00,37998.20 -91.25,37993.55 -83.20,37992.00"/>
        <lane id=":Kalaw_3_2" index="2" speed="11.84" length="32.30" shape="-101.60,38016.80 -100.45,38007.35 -97.00,38000.60 -91.25,37996.55 -83.20,37995.20"/>
        <lane id=":Kalaw_3_3" index="3" speed="11.36" length="29.67" shape="-101.60,38016.80 -100.45,38008.75 -97.00,38003.00 -91.25,37999.55 -83.20,37998.40"/>
    </edge>
    <edge id=":Kalaw_7" function="internal">
        <lane id=":Kalaw_7_0" index="0" speed="7.33" length="11.73" shape="-83.20,38008.00 -85.65,38008.55 -87.40,38010.20 -88.45,38012.95 -88.80,38016.80"/>
        <lane id=":Kalaw_7_1" index="1" speed="8.00" length="14.19" shape="-83.20,38008.00 -87.05,38008.55 -89.80,38010.20 -91.45,38012.95 -92.00,38016.80"/>
    </edge>
    <edge id=":Kalaw_9" function="internal">
        <lane id=":Kalaw_9_0" index="0" speed="16.67" length="33.75" shape="-83.20,38008.00 -92.40,38008.50 -99.30,38009.60 -106.54,38010.70 -116.80,38011.20"/>
        <lane id=":Kalaw_9_1" index="1" speed="16.67" length="33.75" shape="-83.20,38004.80 -92.40,38005.30 -99.30,38006.40 -106.54,38007.50 -116.80,38008.00"/>
        <lane id=":Kalaw_9_2" index="2" speed="16.67" length="33.75" shape="-83.20,38001.60 -92.40,38002.10 -99.30,38003.20 -106.54,38004.30 -116.80,38004.80"/>
        <lane id=":Kalaw_9_3" index="3" speed="16.67" length="33.75" shape="-83.20,38001.60 -116.80,38001.60"/>
    </edge>
    <edge id=":Kalaw_13" function="internal">
        <lane id=":Kalaw_13_0" index="0" speed="11.49" length="30.37" shape="-83.20,38001.60 -90.32,37999.94 -97.33,37995.64 -102.67,37989.72 -104.80,37983.20"/>
        <lane id=":Kalaw_13_1" index="1" speed="11.36" length="29.67" shape="-83.20,38001.60 -91.25,38000.45 -97.00,37997.00 -100.45,37991.25 -101.60,37983.20"/>
    </edge>
    <edge id=":Kalaw_15" function="internal">
        <lane id=":Kalaw_15_0" index="0" speed="15.28" length="33.60" shape="-88.80,37983.20 -88.80,38016.80"/>
        <lane id=":Kalaw_15_1" index="1" speed="15.28" length="33.60" shape="-92.00,37983.20 -92.00,38016.80"/>
        <lane id=":Kalaw_15_2" index="2" speed="15.28" length="33.60" shape="-95.20,37983.20 -95.20,38016.80"/>
    </edge>
    <edge id=":Kalaw_18" function="internal">
        <lane id=":Kalaw_18_0" index="0" speed="12.76" length="37.73" shape="-98.40,37983.20 -99.55,37995.45 -103.00,38004.20 -108.75,38009.45 -116.80,38011.20"/>
        <lane id=":Kalaw_18_1" index="1" speed="12.30" length="34.99" shape="-98.40,37983.20 -99.55,37994.05 -103.00,38001.80 -108.75,38006.45 -116.80,38008.00"/>
        <lane id=":Kalaw_18_2" index="2" speed="11.84" length="32.30" shape="-98.40,37983.20 -99.55,37992.65 -103.00,37999.40 -108.75,38003.45 -116.80,38004.80"/>
        <lane id=":Kalaw_18_3" index="3" speed="11.36" length="29.67" shape="-98.40,37983.20 -99.55,37991.25 -103.00,37997.00 -108.75,38000.45 -116.80,38001.60"/>
    </edge>
    <edge id=":Kalaw_22" function="internal">
        <lane id=":Kalaw_22_0" index="0" speed="6.51" length="9.03" shape="-116.80,37988.80 -114.35,37988.45 -112.60,37987.40 -111.55,37985.65 -111.20,37983.20"/>
    </edge>
    <edge id=":Kalaw_23" function="internal">
        <lane id=":Kalaw_23_0" index="0" speed="15.28" length="33.67" shape="-116.80,37992.00 -83.20,37992.00"/>
        <lane id=":Kalaw_23_1" index="1" speed="15.28" length="33.67" shape="-116.80,37995.20 -83.20,37995.20"/>
        <lane id=":Kalaw_23_2" index="2" speed="15.28" length="33.67" shape="-116.80,37995.20 -106.80,37995.70 -100.00,37996.80 -93.20,37997.90 -83.20,37998.40"/>
    </edge>
    <edge id=":Kalaw_26" function="internal">
        <lane id=":Kalaw_26_0" index="0" speed="12.64" length="36.97" shape="-116.80,37995.20 -108.67,37997.43 -99.47,38002.95 -91.92,38009.99 -88.80,38016.80"/>
        <lane id=":Kalaw_26_1" index="1" speed="12.72" length="37.45" shape="-116.80,37995.20 -105.95,37996.55 -98.20,38000.60 -93.55,38007.35 -92.00,38016.80"/>
        <lane id=":Kalaw_26_2" index="2" speed="11.49" length="30.37" shape="-116.80,37998.40 -109.67,38000.06 -102.67,38004.36 -97.33,38010.28 -95.20,38016.80"/>
        <lane id=":Kalaw_26_3" index="3" speed="11.36" length="29.67" shape="-116.80,37998.40 -108.75,37999.55 -103.00,38003.00 -99.55,38008.75 -98.40,38016.80"/>
    </edge>
    <edge id=":MIA_0" function="internal">
        <lane id=":MIA_0_0" index="0" speed="6.51" length="9.03" shape="-120.80,-1383.20 -121.15,-1385.65 -122.20,-1387.40 -123.95,-1388.45 -126.40,-1388.80"/>
    </edge>
    <edge id=":MIA_1" function="internal">
        <lane id=":MIA_1_0" index="0" speed="16.67" length="37.55" shape="-117.60,-1383.19 -116.60,-1394.19 -114.40,-1401.59 -112.20,-1408.99 -111.20,-1420.00"/>
        <lane id=":MIA_1_1" index="1" speed="16.67" length="37.55" shape="-114.40,-1383.18 -113.40,-1394.19 -111.20,-1401.59 -109.00,-1408.99 -108.00,-1420.00"/>
        <lane id=":MIA_1_2" index="2" speed="16.67" length="37.55" shape="-111.20,-1383.17 -110.20,-1394.18 -108.00,-1401.59 -105.80,-1408.99 -104.80,-1420.00"/>
        <lane id=":MIA_1_3" index="3" speed="16.67" length="37.55" shape="-108.00,-1383.17 -107.00,-1394.18 -104.80,-1401.58 -102.60,-1408.99 -101.60,-1420.00"/>
    </edge>
    <edge id=":MIA_5" function="internal">
        <lane id=":MIA_5_0" index="0" speed="12.72" length="17.47" shape="-104.80,-1383.16 -103.25,-1392.63 -98.79,-1399.12"/>
        <lane id=":MIA_5_1" index="1" speed="11.84" length="9.29" shape="-101.60,-1383.15 -100.25,-1391.22 -99.61,-1392.13"/>
    </edge>
    <edge id=":MIA_26" function="internal">
        <lane id=":MIA_26_0" index="0" speed="12.72" length="20.01" shape="-98.79,-1399.12 -98.60,-1399.39 -90.85,-1403.45 -80.00,-1404.80"/>
    </edge>
    <edge id=":MIA_27" function="internal">
        <lane id=":MIA_27_0" index="0" speed="11.84" length="23.04" shape="-99.61,-1392.13 -96.20,-1396.99 -89.45,-1400.45 -80.00,-1401.60"/>
    </edge>
    <edge id=":MIA_7" function="internal">
        <lane id=":MIA_7_0" index="0" speed="15.28" length="46.59" shape="-80.00,-1395.34 -88.66,-1394.29 -99.45,-1392.04 -112.12,-1389.81 -126.40,-1388.80"/>