<?xml version="1.0" encoding="UTF-8"?>

<!-- generated on 2022-03-10 16:03:27 by Eclipse SUMO GUI Version 1.11.0
-->

<configuration xmlns:xsi="http://www.w3.org/2001/XMLSchema-instance" xsi:noNamespaceSchemaLocation="http://sumo.dlr.de/xsd/sumoConfiguration.xsd">

    <input>
        <net-file value="7TL.net.xml"/>
        <route-files value="7TL.rou.xml"/>
    </input>

</configuration>
