<?xml version="1.0" encoding="UTF-8"?>

<!-- generated on 2022-06-10 22:33:25 by Eclipse SUMO duarouter Version 1.10.0
<configuration xmlns:xsi="http://www.w3.org/2001/XMLSchema-instance" xsi:noNamespaceSchemaLocation="http://sumo.dlr.de/xsd/duarouterConfiguration.xsd">

    <input>
        <net-file value="roxas.net.xml"/>
        <route-files value="trips.xml"/>
    </input>

    <output>
        <output-file value="roxas.rou.xml"/>
        <alternatives-output value="roxas.rou.alt.xml"/>
    </output>

    <time>
        <begin value="0"/>
        <end value="3600"/>
    </time>

    <report>
        <no-warnings value="true"/>
        <ignore-errors value="true"/>
        <no-step-log value="true"/>
    </report>

</configuration>
-->

<routes xmlns:xsi="http://www.w3.org/2001/XMLSchema-instance" xsi:noNamespaceSchemaLocation="http://sumo.dlr.de/xsd/routes_file.xsd">
    <vehicle id="1" depart="0.46">
        <route edges="-E23 -E8 -E37 -E34 -E29 -E22 -E40 E18 E17"/>
    </vehicle>
    <vehicle id="3" depart="1.39">
        <route edges="E14 E15 -E9"/>
    </vehicle>
    <vehicle id="4" depart="1.85">
        <route edges="-E28 E25 E26 -E8 -E37 -E34 -E29 -E22 -E40 E18 E7 E19 -E2 -E0 E3 E5 -E9"/>
    </vehicle>
    <vehicle id="6" depart="2.78">
        <route edges="-E10 E12 E13 -E3 E0 E2 E38 E11"/>
    </vehicle>
    <vehicle id="8" depart="3.70">
        <route edges="-E21 E22 E29 E34 E37 E8 E24 E28"/>
    </vehicle>
    <vehicle id="9" depart="4.17">
        <route edges="E1 -E0 E3 E5 -E9"/>
    </vehicle>
    <vehicle id="11" depart="5.09">
        <route edges="-E27 E25 E26 -E8 -E37 -E34 -E29 -E22 -E40 E18 E7 E19 -E2 -E0 E3 E5 E10"/>
    </vehicle>
    <vehicle id="13" depart="6.02">
        <route edges="-E17 E7 E19 -E2 -E0 E3 E5 E10"/>
    </vehicle>
    <vehicle id="14" depart="6.48">
        <route edges="E1 E2 E38 -E18 E40 E22 E29 E34 E37 E8 E24 E28"/>
    </vehicle>
    <vehicle id="15" depart="6.95">
        <route edges="E1 E2 E38 -E18 E40 E22 E29 E34 E35"/>
    </vehicle>
    <vehicle id="16" depart="7.41">
        <route edges="-E31 -E22 -E40 E18 E7 E19 -E2 -E0 E3 E5 E6"/>
    </vehicle>
    <vehicle id="17" depart="7.87">
        <route edges="-E27 E28"/>
    </vehicle>
    <vehicle id="18" depart="8.33">
        <route edges="E1 E2 E38 -E18 E40 E22 E29 E34 E37 E8 E24 E28"/>
    </vehicle>
    <vehicle id="19" depart="8.80">
        <route edges="E14 E16 E13 -E3 E0 E2 E38 -E18 E40 E22 E29 E34 E37 E8 E24 E28"/>
    </vehicle>
    <vehicle id="21" depart="9.72">
        <route edges="-E21 E20"/>
    </vehicle>
    <vehicle id="25" depart="11.57">
        <route edges="-E27 E25 E26 -E8 -E37 -E34 -E29 -E22 -E40 E18 E17"/>
    </vehicle>
    <vehicle id="26" depart="12.04">
        <route edges="-E23 -E8 -E37 -E34 -E29 -E22 -E40 E18 E7 E19 -E2 -E0 E3 E5 E6"/>
    </vehicle>
    <vehicle id="28" depart="12.96">
        <route edges="-E20 -E40 E18 E7 E19 -E2 E2 E38 -E18 E40 E22 E29 E34 E35"/>
    </vehicle>
    <vehicle id="29" depart="13.43">
        <route edges="-E20 E21"/>
    </vehicle>
    <vehicle id="30" depart="13.89">
        <route edges="E9 E12 E13 -E3 E0 E2 E38 -E18 E40 E22 E29 E34 E37 E8 E24 E28"/>
    </vehicle>
    <vehicle id="31" depart="14.35">
        <route edges="-E32 E31"/>
    </vehicle>
    <vehicle id="32" depart="14.82">
        <route edges="E1 E2 E38 -E18 E40 E22 E29 E34 E35"/>
    </vehicle>
    <vehicle id="38" depart="17.59">
        <route edges="E14 E16 E13 -E3 E0 E2 E38 -E18 E40 E22 E29 E34 E37 E8 E23"/>
    </vehicle>
    <vehicle id="42" depart="19.45">
        <route edges="-E27 E25 E26 -E8 -E37 -E34 -E29 -E22 -E40 E18 E17"/>
    </vehicle>
    <vehicle id="44" depart="20.37">
        <route edges="-E17 E7 E19 -E2 -E0 E3 E5 -E9"/>
    </vehicle>
    <vehicle id="45" depart="20.83">
        <route edges="-E20 -E40 E18 E7 E19 -E2 E2 E38 -E18 E40 E22 E29 E34 E37 E8 E24 E28"/>
    </vehicle>
    <vehicle id="46" depart="21.30">
        <route edges="E1 E2 E38 -E18 E40 E22 E29 E34 E37 E8 E23"/>
    </vehicle>
    <vehicle id="49" depart="22.69">
        <route edges="E9 E12 E13 -E3 E4"/>
    </vehicle>
    <vehicle id="50" depart="23.15">
        <route edges="-E10 E12 E13 -E3 E0 E2 E38 -E18 E40 E22 E29 E34 E35"/>
    </vehicle>
    <vehicle id="52" depart="24.08">
        <route edges="-E23 E24 E28"/>
    </vehicle>
    <vehicle id="53" depart="24.54">
        <route edges="-E20 -E40 E18 E7 E19 -E2 E2 E38 -E18 E40 E22 E29 E34 E37 E8 E23"/>
    </vehicle>
    <vehicle id="54" depart="25.00">
        <route edges="-E28 E25 E26 -E8 -E37 -E34 -E29 -E22 -E40 E18 E7 E19 -E2 -E0 E3 E5 E6"/>
    </vehicle>
    <vehicle id="56" depart="25.93">
        <route edges="-E31 -E22 -E40 E18 E7 E19 -E2 -E0 E3 E5 E10"/>
    </vehicle>
    <vehicle id="57" depart="26.39">
        <route edges="E14 E16 E13 -E3 E4"/>
    </vehicle>
    <vehicle id="58" depart="26.85">
        <route edges="-E23 E24 E28"/>
    </vehicle>
    <vehicle id="60" depart="27.78">
        <route edges="-E36 E27"/>
    </vehicle>
    <vehicle id="63" depart="29.17">
        <route edges="-E10 E6"/>
    </vehicle>
    <vehicle id="64" depart="29.63">
        <route edges="E14 E16 E13 -E3 E4"/>
    </vehicle>
    <vehicle id="65" depart="30.10">
        <route edges="-E23 -E8 -E37 -E34 -E29 -E22 -E40 E18 E7 E19 -E2 -E0 E3 E5 -E9"/>
    </vehicle>
    <vehicle id="67" depart="31.02">
        <route edges="-E11 -E18 E40 E22 E29 E34 E37 E8 E23"/>
    </vehicle>
    <vehicle id="68" depart="31.48">
        <route edges="-E10 E12 E13 -E3 E0 E2 E38 -E18 E40 E22 E29 E34 E35"/>
    </vehicle>
    <vehicle id="70" depart="32.41">
        <route edges="-E28 E25 E26 -E8 -E37 -E34 -E29 -E22 -E40 E18 E7 E19 -E2 E2 E38 -E18 E40 E22 E29 E34 E37 E8 E24 E28"/>
    </vehicle>
    <vehicle id="71" depart="32.87">
        <route edges="-E23 -E8 -E37 -E34 -E29 -E22 -E40 E18 E7 E19 -E2 -E0 E4"/>
    </vehicle>
    <vehicle id="72" depart="33.34">
        <route edges="-E28 E25 E26 -E8 -E37 -E34 -E29 -E22 -E40 E18 E17"/>
    </vehicle>
    <vehicle id="73" depart="33.80">
        <route edges="-E31 E29 E34 E35"/>
    </vehicle>
    <vehicle id="74" depart="34.26">
        <route edges="-E21 E20"/>
    </vehicle>
    <vehicle id="76" depart="35.19">
        <route edges="-E28 E27"/>
    </vehicle>
    <vehicle id="77" depart="35.65">
        <route edges="-E20 -E40 E18 E17"/>
    </vehicle>
    <vehicle id="78" depart="36.11">
        <route edges="-E27 E28"/>
    </vehicle>
    <vehicle id="80" depart="37.04">
        <route edges="-E10 E12 E13 -E3 E0 E2 E38 -E18 E40 E22 E29 E34 E37 E8 E24 E28"/>
    </vehicle>
    <vehicle id="82" depart="37.97">
        <route edges="E14 E15 -E9"/>
    </vehicle>
    <vehicle id="85" depart="39.36">
        <route edges="E9 E12 E13 -E3 E0 E2 E38 -E18 E40 E22 E29 E34 E37 E8 E24 E28"/>
    </vehicle>
    <vehicle id="86" depart="39.82">
        <route edges="-E28 E25 E26 -E8 -E37 E35"/>
    </vehicle>
    <vehicle id="87" depart="40.28">
        <route edges="E1 E2 E38 E11"/>
    </vehicle>
    <vehicle id="88" depart="40.74">
        <route edges="-E17 E7 E19 -E2 E2 E38 -E18 E40 E22 E29 E34 E37 E8 E23"/>
    </vehicle>
    <vehicle id="89" depart="41.21">
        <route edges="-E28 E25 E26 E23"/>
    </vehicle>
    <vehicle id="91" depart="42.13">
        <route edges="E9 E10"/>
    </vehicle>
    <vehicle id="94" depart="43.52">
        <route edges="-E21 E22 E29 E34 E37 E8 E23"/>
    </vehicle>
    <vehicle id="97" depart="44.91">
        <route edges="-E28 E25 E26 -E8 -E37 -E34 -E29 -E22 -E40 E18 E7 E19 -E2 -E0 E4"/>
    </vehicle>
    <vehicle id="98" depart="45.37">
        <route edges="-E31 -E22 -E40 E18 E7 E19 -E2 -E0 E3 E5 -E9"/>
    </vehicle>
    <vehicle id="99" depart="45.84">
        <route edges="E9 E12 E13 -E3 E4"/>
    </vehicle>
    <vehicle id="100" depart="46.30">
        <route edges="E9 E6"/>
    </vehicle>
    <vehicle id="101" depart="46.76">
        <route edges="E1 -E0 E3 E5 E10"/>
    </vehicle>
    <vehicle id="102" depart="47.23">
        <route edges="-E31 -E22 -E40 E18 E17"/>
    </vehicle>
    <vehicle id="103" depart="47.69">
        <route edges="-E27 E25 E26 -E8 -E37 -E34 -E29 -E22 -E40 E18 E7 E19 -E2 -E0 E3 E5 -E9"/>
    </vehicle>
    <vehicle id="104" depart="48.15">
        <route edges="-E27 E25 E26 -E8 -E37 -E34 -E29 -E22 -E40 E18 E7 E19 -E2 -E0 E3 E5 E6"/>
    </vehicle>
    <vehicle id="105" depart="48.62">
        <route edges="-E23 -E8 -E37 E35"/>
    </vehicle>
    <vehicle id="106" depart="49.08">
        <route edges="-E28 E25 E26 E23"/>
    </vehicle>
    <vehicle id="107" depart="49.54">
        <route edges="E9 E6"/>
    </vehicle>
    <vehicle id="110" depart="50.93">
        <route edges="E9 E12 E13 -E3 E0 E2 E38 -E18 E40 E22 E29 E34 E37 E8 E24 E28"/>
    </vehicle>
    <vehicle id="111" depart="51.39">
        <route edges="-E31 E29 E34 E35"/>
    </vehicle>
    <vehicle id="112" depart="51.86">
        <route edges="-E10 E12 E13 -E3 E0 E2 E38 -E18 E40 E22 E29 E34 E37 E8 E24 E28"/>
    </vehicle>
    <vehicle id="113" depart="52.32">
        <route edges="-E31 -E22 -E40 E18 E7 E19 -E2 -E0 E4"/>
    </vehicle>
    <vehicle id="114" depart="52.78">
        <route edges="-E20 -E40 E18 E7 E19 -E2 -E0 E3 E5 E6"/>
    </vehicle>
    <vehicle id="116" depart="53.71">
        <route edges="-E32 E31"/>
    </vehicle>
    <vehicle id="120" depart="55.56">
        <route edges="-E28 E25 E26 -E8 -E37 -E34 -E29 -E22 -E40 E18 E7 E19 -E2 E2 E38 -E18 E40 E22 E29 E34 E37 E8 E24 E28"/>
    </vehicle>
    <vehicle id="121" depart="56.02">
        <route edges="-E31 -E22 -E40 E18 E7 E19 -E2 -E0 E3 E5 E6"/>
    </vehicle>
    <vehicle id="125" depart="57.88">
        <route edges="-E23 -E8 -E37 E35"/>
    </vehicle>
    <vehicle id="126" depart="58.34">
        <route edges="-E10 E12 E13 -E3 E0 E2 E38 -E18 E40 E22 E29 E34 E37 E8 E23"/>
    </vehicle>
    <vehicle id="127" depart="58.80">
        <route edges="E9 E6"/>
    </vehicle>
    <vehicle id="129" depart="59.73">
        <route edges="-E23 -E8 -E37 -E34 -E29 -E22 -E40 E18 E7 E19 -E2 -E0 E3 E5 E6"/>
    </vehicle>
    <vehicle id="130" depart="60.19">
        <route edges="E14 E16 E13 -E3 E4"/>
    </vehicle>
    <vehicle id="131" depart="60.65">
        <route edges="-E27 E25 E26 -E8 -E37 -E34 -E29 -E22 -E40 E18 E7 E19 -E2 -E0 E3 E5 E10"/>
    </vehicle>
    <vehicle id="137" depart="63.43">
        <route edges="-E20 -E40 E18 E7 E19 -E2 -E0 E3 E5 E10"/>
    </vehicle>
    <vehicle id="138" depart="63.89">
        <route edges="-E20 -E40 E18 E7 E19 -E2 E2 E38 -E18 E40 E22 E29 E34 E37 E8 E24 E28"/>
    </vehicle>
    <vehicle id="139" depart="64.36">
        <route edges="-E23 E24 E28"/>
    </vehicle>
    <vehicle id="142" depart="65.75">
        <route edges="-E31 -E22 -E40 E18 E7 E19 -E2 -E0 E4"/>
    </vehicle>
    <vehicle id="143" depart="66.21">
        <route edges="E1 -E0 E3 E5 -E9"/>
    </vehicle>
    <vehicle id="145" depart="67.14">
        <route edges="-E10 E12 E13 -E3 E0 E2 E38 -E18 E40 E22 E29 E34 E35"/>
    </vehicle>
    <vehicle id="147" depart="68.06">
        <route edges="-E36 E28"/>
    </vehicle>
    <vehicle id="148" depart="68.52">
        <route edges="-E28 E25 E26 -E8 -E37 -E34 -E29 -E22 -E40 E18 E7 E19 -E2 -E0 E3 E5 -E9"/>
    </vehicle>
    <vehicle id="151" depart="69.91">
        <route edges="E1 E2 E38 -E18 E40 E22 E29 E34 E37 E8 E24 E28"/>
    </vehicle>
    <vehicle id="152" depart="70.38">
        <route edges="-E20 -E40 E18 E7 E19 -E2 -E0 E3 E5 E10"/>
    </vehicle>
    <vehicle id="153" depart="70.84">
        <route edges="-E23 -E8 -E37 -E34 -E29 -E22 -E40 E18 E7 E19 -E2 -E0 E4"/>
    </vehicle>
    <vehicle id="154" depart="71.30">
        <route edges="E1 -E0 E4"/>
    </vehicle>
    <vehicle id="157" depart="72.69">
        <route edges="E1 -E0 E4"/>
    </vehicle>
    <vehicle id="158" depart="73.15">
        <route edges="-E28 E25 E26 -E8 -E37 -E34 -E29 -E22 -E40 E18 E7 E19 -E2 E2 E38 -E18 E40 E22 E29 E34 E37 E8 E24 E28"/>
    </vehicle>
    <vehicle id="159" depart="73.62">
        <route edges="-E20 -E40 E18 E7 E19 -E2 -E0 E3 E5 E6"/>
    </vehicle>
    <vehicle id="161" depart="74.54">
        <route edges="E1 -E0 E4"/>
    </vehicle>
    <vehicle id="162" depart="75.01">
        <route edges="-E10 E12 E13 -E3 E0 E2 E38 -E18 E40 E22 E29 E34 E35"/>
    </vehicle>
    <vehicle id="163" depart="75.47">
        <route edges="-E27 E25 E26 -E8 -E37 -E34 -E29 -E22 -E40 E18 E7 E19 -E2 -E0 E3 E5 E6"/>
    </vehicle>
    <vehicle id="164" depart="75.93">
        <route edges="E1 -E0 E4"/>
    </vehicle>
    <vehicle id="166" depart="76.86">
        <route edges="E1 -E0 E3 E5 E10"/>
    </vehicle>
    <vehicle id="167" depart="77.32">
        <route edges="E14 E16 E13 -E3 E4"/>
    </vehicle>
    <vehicle id="171" depart="79.17">
        <route edges="-E10 E12 E13 -E3 E0 E2 E38 E11"/>
    </vehicle>
    <vehicle id="172" depart="79.64">
        <route edges="-E23 -E8 -E37 -E34 -E29 -E22 -E40 E18 E7 E19 -E2 -E0 E4"/>
    </vehicle>
    <vehicle id="176" depart="81.49">
        <route edges="E9 E10"/>
    </vehicle>
    <vehicle id="177" depart="81.95">
        <route edges="E9 E10"/>
    </vehicle>
    <vehicle id="179" depart="82.88">
        <route edges="-E20 -E40 E18 E7 E19 -E2 E2 E38 -E18 E40 E22 E29 E34 E37 E8 E23"/>
    </vehicle>
    <vehicle id="182" depart="84.27">
        <route edges="-E27 E28"/>
    </vehicle>
    <vehicle id="183" depart="84.73">
        <route edges="-E23 -E8 -E37 -E34 -E29 E31"/>
    </vehicle>
    <vehicle id="184" depart="85.19">
        <route edges="-E10 E6"/>
    </vehicle>
    <vehicle id="185" depart="85.65">
        <route edges="-E31 E29 E34 E35"/>
    </vehicle>
    <vehicle id="187" depart="86.58">
        <route edges="-E27 E25 E26 -E8 -E37 -E34 -E29 -E22 -E40 E18 E7 E19 -E2 -E0 E3 E5 -E9"/>
    </vehicle>
    <vehicle id="189" depart="87.51">
        <route edges="-E23 -E8 -E37 -E34 -E29 -E22 -E40 E18 E7 E19 -E2 -E0 E4"/>
    </vehicle>
    <vehicle id="193" depart="89.36">
        <route edges="-E20 -E40 E18 E7 E19 -E2 E2 E38 -E18 E40 E22 E29 E34 E37 E8 E23"/>
    </vehicle>
    <vehicle id="195" depart="90.28">
        <route edges="E14 E16 E13 -E3 E0 E2 E38 -E18 E40 E22 E29 E34 E37 E8 E24 E28"/>
    </vehicle>
    <vehicle id="196" depart="90.75">
        <route edges="-E23 E24 E28"/>
    </vehicle>
    <vehicle id="198" depart="91.67">
        <route edges="-E28 E25 E26 -E8 -E37 -E34 -E29 -E22 -E40 E18 E7 E19 -E2 E2 E38 -E18 E40 E22 E29 E34 E37 E8 E24 E28"/>
    </vehicle>
    <vehicle id="200" depart="92.60">
        <route edges="-E28 E25 E26 -E8 -E37 -E34 -E29 -E22 -E40 E18 E17"/>
    </vehicle>
    <vehicle id="201" depart="93.06">
        <route edges="-E28 E25 E26 -E8 -E37 -E34 -E29 -E22 -E40 E18 E7 E19 -E2 -E0 E4"/>
    </vehicle>
    <vehicle id="202" depart="93.53">
        <route edges="E1 -E0 E3 E5 E10"/>
    </vehicle>
    <vehicle id="205" depart="94.91">
        <route edges="E1 E2 E38 -E18 E40 E22 E29 E34 E35"/>
    </vehicle>
    <vehicle id="208" depart="96.30">
        <route edges="-E21 E22 E29 E34 E37 E8 E23"/>
    </vehicle>
    <vehicle id="209" depart="96.77">
        <route edges="E1 -E0 E3 E5 -E9"/>
    </vehicle>
    <vehicle id="210" depart="97.23">
        <route edges="-E28 E25 E26 -E8 -E37 -E34 -E29 -E22 -E40 E18 E7 E19 -E2 E2 E38 -E18 E40 E22 E29 E34 E37 E8 E24 E28"/>
    </vehicle>
    <vehicle id="215" depart="99.54">
        <route edges="-E20 -E40 E18 E7 E19 -E2 E2 E38 -E18 E40 E22 E29 E34 E37 E8 E23"/>
    </vehicle>
    <vehicle id="216" depart="100.01">
        <route edges="-E20 -E40 E18 E7 E19 -E2 -E0 E3 E5 E6"/>
    </vehicle>
    <vehicle id="217" depart="100.47">
        <route edges="-E31 -E22 -E40 E18 E7 E19 -E2 -E0 E3 E5 -E9"/>
    </vehicle>
    <vehicle id="219" depart="101.40">
        <route edges="-E28 E25 E26 -E8 -E37 -E34 -E29 -E22 -E40 E18 E7 E19 -E2 E2 E38 -E18 E40 E22 E29 E34 E37 E8 E24 E36"/>
    </vehicle>
    <vehicle id="222" depart="102.79">
        <route edges="E14 E16 E13 -E3 E0 E2 E38 -E18 E40 E22 E29 E34 E37 E8 E24 E28"/>
    </vehicle>
    <vehicle id="223" depart="103.25">
        <route edges="-E36 E27"/>
    </vehicle>
    <vehicle id="224" depart="103.71">
        <route edges="E1 E2 E38 -E18 E40 E22 E29 E34 E37 E8 E24 E28"/>
    </vehicle>
    <vehicle id="225" depart="104.17">
        <route edges="E14 E16 E13 -E3 E0 E2 E38 -E18 E40 E22 E29 E34 E35"/>
    </vehicle>
    <vehicle id="227" depart="105.10">
        <route edges="-E21 E22 E29 E34 E37 E8 E24 E28"/>
    </vehicle>
    <vehicle id="228" depart="105.56">
        <route edges="-E36 E27"/>
    </vehicle>
    <vehicle id="232" depart="107.42">
        <route edges="-E31 -E22 -E40 E18 E7 E19 -E2 -E0 E3 E5 E10"/>
    </vehicle>
    <vehicle id="235" depart="108.80">
        <route edges="-E28 E27"/>
    </vehicle>
    <vehicle id="236" depart="109.27">
        <route edges="-E28 E25 E26 -E8 -E37 -E34 -E29 -E22 -E40 E18 E7 E19 -E2 E2 E38 E11"/>
    </vehicle>
    <vehicle id="237" depart="109.73">
        <route edges="-E28 E25 E26 -E8 -E37 -E34 -E29 -E22 -E40 E18 E7 E19 -E2 -E0 E4"/>
    </vehicle>
    <vehicle id="238" depart="110.19">
        <route edges="-E32 E31"/>
    </vehicle>
    <vehicle id="239" depart="110.66">
        <route edges="E14 E16 E13 -E3 E0 E2 E38 -E18 E40 E22 E29 E34 E35"/>
    </vehicle>
    <vehicle id="240" depart="111.12">
        <route edges="-E27 E25 E26 -E8 -E37 -E34 -E29 -E22 -E40 E18 E7 E19 -E2 -E0 E3 E5 -E9"/>
    </vehicle>
    <vehicle id="241" depart="111.58">
        <route edges="-E27 E25 E26 -E8 -E37 E35"/>
    </vehicle>
    <vehicle id="243" depart="112.51">
        <route edges="-E28 E25 E26 -E8 -E37 E35"/>
    </vehicle>
    <vehicle id="244" depart="112.97">
        <route edges="-E31 E29 E34 E37 E8 E24 E28"/>
    </vehicle>
    <vehicle id="246" depart="113.90">
        <route edges="-E28 E25 E26 -E8 -E37 -E34 -E29 -E22 -E40 E18 E7 E19 -E2 -E0 E3 E5 -E9"/>
    </vehicle>
    <vehicle id="247" depart="114.36">
        <route edges="-E27 E25 E26 -E8 -E37 -E34 -E29 E31"/>
    </vehicle>
    <vehicle id="248" depart="114.82">
        <route edges="-E28 E25 E26 -E8 -E37 -E34 -E29 -E22 -E40 E18 E7 E19 -E2 -E0 E3 E5 E10"/>
    </vehicle>
    <vehicle id="249" depart="115.29">
        <route edges="-E28 E25 E26 -E8 -E37 -E34 -E29 -E22 -E40 E18 E7 E19 -E2 -E0 E3 E5 E10"/>
    </vehicle>
    <vehicle id="251" depart="116.21">
        <route edges="-E27 E28"/>
    </vehicle>
    <vehicle id="253" depart="117.14">
        <route edges="-E20 -E40 E18 E7 E19 -E2 E2 E38 -E18 E40 E22 E29 E34 E37 E8 E23"/>
    </vehicle>
    <vehicle id="263" depart="121.77">
        <route edges="E9 E12 E13 -E3 E0 E2 E38 E11"/>
    </vehicle>
    <vehicle id="268" depart="124.08">
        <route edges="-E20 -E40 E18 E7 E19 -E2 E2 E38 -E18 E40 E22 E29 E34 E37 E8 E24 E28"/>
    </vehicle>
    <vehicle id="270" depart="125.01">
        <route edges="E1 -E0 E3 E5 E6"/>
    </vehicle>
    <vehicle id="271" depart="125.47">
        <route edges="-E20 -E40 E18 E7 E19 -E2 -E0 E3 E5 -E9"/>
    </vehicle>
    <vehicle id="272" depart="125.94">
        <route edges="-E23 -E8 -E37 -E34 -E29 E31"/>
    </vehicle>
    <vehicle id="276" depart="127.79">
        <route edges="-E17 E7 E19 -E2 E2 E38 -E18 E40 E22 E29 E34 E35"/>
    </vehicle>
    <vehicle id="277" depart="128.25">
        <route edges="E1 E2 E38 -E18 E40 E22 E29 E34 E37 E8 E24 E28"/>
    </vehicle>
    <vehicle id="278" depart="128.71">
        <route edges="-E20 -E40 E18 E7 E19 -E2 -E0 E3 E5 E6"/>
    </vehicle>
    <vehicle id="282" depart="130.57">
        <route edges="E1 -E0 E4"/>
    </vehicle>
    <vehicle id="283" depart="131.03">
        <route edges="-E20 -E40 E18 E7 E19 -E2 -E0 E3 E5 E6"/>
    </vehicle>
    <vehicle id="287" depart="132.88">
        <route edges="-E23 E24 E36"/>
    </vehicle>
    <vehicle id="288" depart="133.34">
        <route edges="-E31 E29 E34 E37 E8 E23"/>
    </vehicle>
    <vehicle id="289" depart="133.81">
        <route edges="-E28 E25 E26 -E8 -E37 E35"/>
    </vehicle>
    <vehicle id="290" depart="134.27">
        <route edges="-E23 -E8 -E37 -E34 -E29 -E22 -E40 E18 E7 E19 -E2 -E0 E4"/>
    </vehicle>
    <vehicle id="291" depart="134.73">
        <route edges="E1 -E0 E3 E5 -E9"/>
    </vehicle>
    <vehicle id="293" depart="135.66">
        <route edges="-E28 E25 E26 -E8 -E37 -E34 -E29 -E22 -E40 E18 E7 E19 -E2 E2 E38 -E18 E40 E22 E29 E34 E37 E8 E24 E28"/>
    </vehicle>
    <vehicle id="294" depart="136.12">
        <route edges="-E27 E25 E26 -E8 -E37 -E34 -E29 -E22 -E40 E18 E7 E19 -E2 -E0 E3 E5 -E9"/>
    </vehicle>
    <vehicle id="295" depart="136.58">
        <route edges="E14 E15 E10"/>
    </vehicle>
    <vehicle id="296" depart="137.05">
        <route edges="-E21 E22 E29 E34 E37 E8 E24 E36"/>
    </vehicle>
    <vehicle id="297" depart="137.51">
        <route edges="-E27 E25 E26 -E8 -E37 -E34 -E29 -E22 -E40 E18 E7 E19 -E2 -E0 E4"/>
    </vehicle>
    <vehicle id="299" depart="138.44">
        <route edges="-E10 E6"/>
    </vehicle>
    <vehicle id="300" depart="138.90">
        <route edges="-E11 -E18 E40 E22 E29 E34 E35"/>
    </vehicle>
    <vehicle id="301" depart="139.36">
        <route edges="-E31 E29 E34 E35"/>
    </vehicle>
    <vehicle id="303" depart="140.29">
        <route edges="-E31 E29 E34 E37 E8 E24 E36"/>
    </vehicle>
    <vehicle id="307" depart="142.14">
        <route edges="-E31 E29 E34 E37 E8 E23"/>
    </vehicle>
    <vehicle id="312" depart="144.46">
        <route edges="-E31 E29 E34 E35"/>
    </vehicle>
    <vehicle id="314" depart="145.38">
        <route edges="-E31 E29 E34 E35"/>
    </vehicle>
    <vehicle id="316" depart="146.31">
        <route edges="-E23 -E8 -E37 -E34 -E29 -E22 -E40 E18 E7 E19 -E2 -E0 E3 E5 E10"/>
    </vehicle>
    <vehicle id="317" depart="146.77">
        <route edges="-E21 E20"/>
    </vehicle>
    <vehicle id="320" depart="148.16">
        <route edges="E9 E12 E13 -E3 E0 E2 E38 -E18 E40 E22 E29 E34 E37 E8 E24 E28"/>
    </vehicle>
    <vehicle id="323" depart="149.55">
        <route edges="E14 E16 E13 -E3 E0 E2 E38 -E18 E40 E22 E29 E34 E37 E8 E24 E28"/>
    </vehicle>
    <vehicle id="324" depart="150.01">
        <route edges="-E28 E25 E26 E23"/>
    </vehicle>
    <vehicle id="326" depart="150.94">
        <route edges="E9 E12 E13 -E3 E0 E2 E38 -E18 E40 E22 E29 E34 E37 E8 E23"/>
    </vehicle>
    <vehicle id="328" depart="151.86">
        <route edges="-E10 E12 E13 -E3 E0 E2 E38 -E18 E40 E22 E29 E34 E37 E8 E24 E28"/>
    </vehicle>
    <vehicle id="331" depart="153.25">
        <route edges="E9 E10"/>
    </vehicle>
    <vehicle id="332" depart="153.72">
        <route edges="-E36 E28"/>
    </vehicle>
    <vehicle id="334" depart="154.64">
        <route edges="-E31 E29 E34 E37 E8 E23"/>
    </vehicle>
    <vehicle id="335" depart="155.10">
        <route edges="-E28 E25 E26 -E8 -E37 -E34 -E29 -E22 -E40 E18 E7 E19 -E2 -E0 E4"/>
    </vehicle>
    <vehicle id="341" depart="157.88">
        <route edges="-E20 -E40 E18 E7 E19 -E2 -E0 E3 E5 -E9"/>
    </vehicle>
    <vehicle id="342" depart="158.35">
        <route edges="-E10 E12 E13 -E3 E0 E2 E38 -E18 E40 E22 E29 E34 E37 E8 E23"/>
    </vehicle>
    <vehicle id="347" depart="160.66">
        <route edges="E1 E2 E38 -E18 E40 E22 E29 E34 E37 E8 E24 E28"/>
    </vehicle>
    <vehicle id="349" depart="161.59">
        <route edges="-E28 E27"/>
    </vehicle>
    <vehicle id="351" depart="162.51">
        <route edges="E1 -E0 E3 E5 -E9"/>
    </vehicle>
    <vehicle id="353" depart="163.44">
        <route edges="-E36 E28"/>
    </vehicle>
    <vehicle id="354" depart="163.90">
        <route edges="-E23 -E8 -E37 -E34 -E29 -E22 -E40 E18 E7 E19 -E2 -E0 E3 E5 E10"/>
    </vehicle>
    <vehicle id="357" depart="165.29">
        <route edges="-E31 -E22 -E40 E18 E7 E19 -E2 -E0 E3 E5 -E9"/>
    </vehicle>
    <vehicle id="358" depart="165.75">
        <route edges="-E10 E12 E13 -E3 E0 E2 E38 -E18 E40 E22 E29 E34 E37 E8 E23"/>
    </vehicle>
    <vehicle id="360" depart="166.68">
        <route edges="-E17 E7 E19 -E2 -E0 E3 E5 E6"/>
    </vehicle>
    <vehicle id="361" depart="167.14">
        <route edges="E1 E2 E38 -E18 E40 E22 E29 E34 E37 E8 E24 E28"/>
    </vehicle>
    <vehicle id="362" depart="167.61">
        <route edges="E9 E6"/>
    </vehicle>
    <vehicle id="364" depart="168.53">
        <route edges="-E10 E12 E13 -E3 E0 E2 E38 -E18 E40 E22 E29 E34 E35"/>
    </vehicle>
    <vehicle id="365" depart="168.99">
        <route edges="-E28 E25 E26 -E8 -E37 -E34 -E29 E31"/>
    </vehicle>
    <vehicle id="366" depart="169.46">
        <route edges="E14 E15 E10"/>
    </vehicle>
    <vehicle id="368" depart="170.38">
        <route edges="-E31 -E22 -E40 E18 E7 E19 -E2 -E0 E3 E5 -E9"/>
    </vehicle>
    <vehicle id="371" depart="171.77">
        <route edges="-E27 E25 E26 -E8 -E37 -E34 -E29 E31"/>
    </vehicle>
    <vehicle id="372" depart="172.24">
        <route edges="-E23 -E8 -E37 -E34 -E29 -E22 -E40 E18 E7 E19 -E2 -E0 E3 E5 E6"/>
    </vehicle>
    <vehicle id="373" depart="172.70">
        <route edges="E1 E2 E38 -E18 E40 E22 E29 E34 E37 E8 E24 E28"/>
    </vehicle>
    <vehicle id="375" depart="173.62">
        <route edges="-E23 -E8 -E37 -E34 -E29 -E22 -E40 E18 E7 E19 -E2 -E0 E3 E5 E6"/>
    </vehicle>
    <vehicle id="376" depart="174.09">
        <route edges="-E28 E27"/>
    </vehicle>
    <vehicle id="380" depart="175.94">
        <route edges="-E36 E28"/>
    </vehicle>
    <vehicle id="382" depart="176.87">
        <route edges="-E31 -E22 -E40 E18 E7 E19 -E2 -E0 E3 E5 E6"/>
    </vehicle>
    <vehicle id="383" depart="177.33">
        <route edges="-E28 E25 E26 -E8 -E37 -E34 -E29 E31"/>
    </vehicle>
    <vehicle id="384" depart="177.79">
        <route edges="-E20 -E40 E18 E7 E19 -E2 -E0 E3 E5 E6"/>
    </vehicle>
    <vehicle id="386" depart="178.72">
        <route edges="-E20 -E40 E18 E7 E19 -E2 E2 E38 -E18 E40 E22 E29 E34 E37 E8 E24 E28"/>
    </vehicle>
    <vehicle id="388" depart="179.64">
        <route edges="E9 E6"/>
    </vehicle>
    <vehicle id="389" depart="180.11">
        <route edges="-E28 E25 E26 -E8 -E37 -E34 -E29 -E22 -E40 E18 E7 E19 -E2 -E0 E3 E5 E10"/>
    </vehicle>
    <vehicle id="391" depart="181.03">
        <route edges="-E36 E27"/>
    </vehicle>
    <vehicle id="392" depart="181.50">
        <route edges="-E23 -E8 -E37 -E34 -E29 -E22 -E40 E18 E7 E19 -E2 -E0 E4"/>
    </vehicle>
    <vehicle id="396" depart="183.35">
        <route edges="E14 E16 E13 -E3 E4"/>
    </vehicle>
    <vehicle id="397" depart="183.81">
        <route edges="-E23 -E8 -E37 E35"/>
    </vehicle>
    <vehicle id="398" depart="184.27">
        <route edges="-E28 E25 E26 -E8 -E37 -E34 -E29 -E22 -E40 E18 E7 E19 -E2 -E0 E3 E5 E6"/>
    </vehicle>
    <vehicle id="399" depart="184.74">
        <route edges="-E31 -E22 -E40 E18 E7 E19 -E2 -E0 E4"/>
    </vehicle>
    <vehicle id="402" depart="186.13">
        <route edges="-E31 -E22 -E40 E18 E7 E19 -E2 -E0 E3 E5 E10"/>
    </vehicle>
    <vehicle id="415" depart="192.14">
        <route edges="E14 E16 E13 -E3 E0 E2 E38 -E18 E40 E22 E29 E34 E37 E8 E23"/>
    </vehicle>
    <vehicle id="416" depart="192.61">
        <route edges="-E31 E29 E34 E37 E8 E23"/>
    </vehicle>
    <vehicle id="419" depart="194.00">
        <route edges="-E28 E25 E26 -E8 -E37 -E34 -E29 -E22 -E40 E18 E7 E19 -E2 -E0 E3 E5 E6"/>
    </vehicle>
    <vehicle id="420" depart="194.46">
        <route edges="-E27 E25 E26 -E8 -E37 -E34 -E29 E31"/>
    </vehicle>
    <vehicle id="422" depart="195.39">
        <route edges="E14 E16 E13 -E3 E4"/>
    </vehicle>
    <vehicle id="425" depart="196.77">
        <route edges="E14 E15 -E9"/>
    </vehicle>
    <vehicle id="426" depart="197.24">
        <route edges="-E10 E12 E13 -E3 E0 E2 E38 -E18 E40 E22 E29 E34 E37 E8 E24 E28"/>
    </vehicle>
    <vehicle id="429" depart="198.63">
        <route edges="-E17 E7 E19 -E2 E2 E38 -E18 E40 E22 E29 E34 E37 E8 E24 E28"/>
    </vehicle>
    <vehicle id="430" depart="199.09">
        <route edges="E14 E16 E13 -E3 E0 E2 E38 -E18 E40 E22 E29 E34 E37 E8 E23"/>
    </vehicle>
    <vehicle id="432" depart="200.02">
        <route edges="-E10 E12 E13 -E3 E0 E2 E38 -E18 E40 E22 E29 E34 E37 E8 E24 E36"/>
    </vehicle>
    <vehicle id="436" depart="201.87">
        <route edges="-E20 -E40 E18 E7 E19 -E2 -E0 E3 E5 -E9"/>
    </vehicle>
    <vehicle id="437" depart="202.33">
        <route edges="E14 E16 E13 -E3 E0 E2 E38 -E18 E40 E22 E29 E34 E37 E8 E24 E28"/>
    </vehicle>
    <vehicle id="439" depart="203.26">
        <route edges="-E20 -E40 E18 E7 E19 -E2 E2 E38 -E18 E40 E22 E29 E34 E37 E8 E23"/>
    </vehicle>
    <vehicle id="441" depart="204.18">
        <route edges="-E10 E12 E13 -E3 E0 E2 E38 -E18 E40 E22 E29 E34 E37 E8 E24 E36"/>
    </vehicle>
    <vehicle id="443" depart="205.11">
        <route edges="-E20 -E40 E18 E7 E19 -E2 E2 E38 -E18 E40 E22 E29 E34 E37 E8 E23"/>
    </vehicle>
    <vehicle id="444" depart="205.57">
        <route edges="-E27 E28"/>
    </vehicle>
    <vehicle id="452" depart="209.28">
        <route edges="-E23 E24 E28"/>
    </vehicle>
    <vehicle id="454" depart="210.20">
        <route edges="-E10 E12 E13 -E3 E0 E2 E38 -E18 E40 E22 E29 E34 E37 E8 E24 E28"/>
    </vehicle>
    <vehicle id="455" depart="210.66">
        <route edges="-E31 -E22 -E40 E18 E7 E19 -E2 -E0 E4"/>
    </vehicle>
    <vehicle id="456" depart="211.13">
        <route edges="-E23 E24 E36"/>
    </vehicle>
    <vehicle id="463" depart="214.37">
        <route edges="-E28 E25 E26 -E8 -E37 -E34 -E29 -E22 -E40 E18 E7 E19 -E2 E2 E38 -E18 E40 E22 E29 E34 E37 E8 E24 E28"/>
    </vehicle>
    <vehicle id="465" depart="215.29">
        <route edges="-E23 -E8 -E37 E35"/>
    </vehicle>
    <vehicle id="466" depart="215.76">
        <route edges="-E20 -E40 E18 E7 E19 -E2 -E0 E3 E5 E10"/>
    </vehicle>
    <vehicle id="467" depart="216.22">