<?xml version="1.0" encoding="UTF-8"?>

<!-- generated on 2022-06-09 21:06:51 by Eclipse SUMO netedit Version 1.10.0
<configuration xmlns:xsi="http://www.w3.org/2001/XMLSchema-instance" xsi:noNamespaceSchemaLocation="http://sumo.dlr.de/xsd/netconvertConfiguration.xsd">

    <input>
        <sumo-net-file value="Roxas.net.xml"/>
    </input>

    <output>
        <output-file value="Roxas.net.xml"/>
    </output>

    <processing>
        <geometry.min-radius.fix.railways value="false"/>
        <geometry.max-grade.fix value="false"/>
        <offset.disable-normalization value="true"/>
        <lefthand value="false"/>
    </processing>

    <junctions>
        <no-turnarounds value="true"/>
        <junctions.corner-detail value="5"/>
        <junctions.limit-turn-speed value="5.5"/>
        <rectangular-lane-cut value="false"/>
    </junctions>

    <pedestrian>
        <walkingareas value="false"/>
    </pedestrian>

    <report>
        <aggregate-warnings value="5"/>
    </report>

</configuration>
-->

<net version="1.9" junctionCornerDetail="5" limitTurnSpeed="5.50" xmlns:xsi="http://www.w3.org/2001/XMLSchema-instance" xsi:noNamespaceSchemaLocation="http://sumo.dlr.de/xsd/net_file.xsd">

    <location netOffset="0.00,0.00" convBoundary="-3900.00,-2400.00,500.00,24200.00" origBoundary="-10000000000.00,-10000000000.00,10000000000.00,10000000000.00" projParameter="!"/>

    <edge id=":Airport_0" function="internal">
        <lane id=":Airport_0_0" index="0" speed="16.67" length="17.60" shape="-114.40,-286.40 -114.40,-304.00"/>
        <lane id=":Airport_0_1" index="1" speed="16.67" length="17.60" shape="-111.20,-286.40 -111.20,-304.00"/>
        <lane id=":Airport_0_2" index="2" speed="16.67" length="17.60" shape="-108.00,-286.40 -108.00,-304.00"/>
        <lane id=":Airport_0_3" index="3" speed="16.67" length="17.60" shape="-104.80,-286.40 -104.80,-304.00"/>
    </edge>
    <edge id=":Airport_4" function="internal">
        <lane id=":Airport_4_0" index="0" speed="7.61" length="25.70" shape="-104.80,-286.40 -100.00,-293.60 -95.20,-296.00 -90.40,-293.60 -85.60,-286.40"/>
        <lane id=":Airport_4_1" index="1" speed="7.00" length="25.70" shape="-104.80,-286.40 -100.80,-292.40 -96.80,-294.40 -92.80,-292.40 -88.80,-286.40"/>
    </edge>
    <edge id=":Airport_6" function="internal">
        <lane id=":Airport_6_0" index="0" speed="16.67" length="17.60" shape="-101.60,-286.40 -101.60,-304.00"/>
    </edge>
    <edge id=":Airport_7" function="internal">
        <lane id=":Airport_7_0" index="0" speed="5.58" length="9.35" shape="-101.60,-286.40 -99.20,-290.00 -96.80,-291.20 -94.40,-290.00 -92.00,-286.40"/>
        <lane id=":Airport_7_1" index="1" speed="4.72" length="9.35" shape="-101.60,-286.40 -100.00,-288.80 -98.40,-289.60 -96.80,-288.80 -95.20,-286.40"/>
        <lane id=":Airport_7_2" index="2" speed="3.65" length="9.35" shape="-101.60,-286.40 -100.80,-287.60 -100.00,-288.00 -99.20,-287.60 -98.40,-286.40"/>
    </edge>
    <edge id=":Airport_10" function="internal">
        <lane id=":Airport_10_0" index="0" speed="6.51" length="9.03" shape="-73.60,-292.00 -76.05,-291.65 -77.80,-290.60 -78.85,-288.85 -79.20,-286.40"/>
        <lane id=":Airport_10_1" index="1" speed="8.00" length="14.19" shape="-73.60,-295.20 -77.45,-294.65 -80.20,-293.00 -81.85,-290.25 -82.40,-286.40"/>
        <lane id=":Airport_10_2" index="2" speed="8.67" length="16.85" shape="-73.60,-295.20 -78.85,-294.65 -82.60,-293.00 -84.85,-290.25 -85.60,-286.40"/>
        <lane id=":Airport_10_3" index="3" speed="9.32" length="19.63" shape="-73.60,-295.20 -80.25,-294.65 -85.00,-293.00 -87.85,-290.25 -88.80,-286.40"/>
        <lane id=":Airport_10_4" index="4" speed="9.94" length="22.48" shape="-73.60,-295.20 -81.65,-294.65 -87.40,-293.00 -90.85,-290.25 -92.00,-286.40"/>
        <lane id=":Airport_10_5" index="5" speed="10.54" length="25.39" shape="-73.60,-295.20 -83.05,-294.65 -89.80,-293.00 -93.85,-290.25 -95.20,-286.40"/>
        <lane id=":Airport_10_6" index="6" speed="11.11" length="28.34" shape="-73.60,-295.20 -84.45,-294.65 -92.20,-293.00 -96.85,-290.25 -98.40,-286.40"/>
    </edge>
    <edge id=":Airport_17" function="internal">
        <lane id=":Airport_17_0" index="0" speed="12.96" length="38.91" shape="-73.60,-298.40 -90.05,-298.75 -101.80,-299.80 -108.85,-301.55 -111.20,-304.00"/>
        <lane id=":Airport_17_1" index="1" speed="12.44" length="35.80" shape="-73.60,-298.40 -88.65,-298.75 -99.40,-299.80 -105.85,-301.55 -108.00,-304.00"/>
        <lane id=":Airport_17_2" index="2" speed="11.91" length="32.70" shape="-73.60,-298.40 -87.25,-298.75 -97.00,-299.80 -102.85,-301.55 -104.80,-304.00"/>
        <lane id=":Airport_17_3" index="3" speed="11.35" length="29.61" shape="-73.60,-298.40 -85.85,-298.75 -94.60,-299.80 -99.85,-301.55 -101.60,-304.00"/>
    </edge>
    <edge id=":Airport_21" function="internal">
        <lane id=":Airport_21_0" index="0" speed="16.67" length="17.60" shape="-79.20,-304.00 -79.20,-286.40"/>
        <lane id=":Airport_21_1" index="1" speed="16.67" length="17.60" shape="-82.40,-304.00 -82.40,-286.40"/>
        <lane id=":Airport_21_2" index="2" speed="16.67" length="17.60" shape="-85.60,-304.00 -85.60,-286.40"/>
        <lane id=":Airport_21_3" index="3" speed="16.67" length="17.60" shape="-88.80,-304.00 -88.80,-286.40"/>
        <lane id=":Airport_21_4" index="4" speed="16.67" length="17.60" shape="-92.00,-304.00 -92.00,-286.40"/>
        <lane id=":Airport_21_5" index="5" speed="16.67" length="17.60" shape="-95.20,-304.00 -95.20,-286.40"/>
        <lane id=":Airport_21_6" index="6" speed="16.67" length="17.60" shape="-98.40,-304.00 -98.40,-286.40"/>
    </edge>
    <edge id=":Edsa_0" function="internal">
        <lane id=":Edsa_0_0" index="0" speed="6.51" length="9.03" shape="-111.20,823.20 -111.55,820.75 -112.60,819.00 -114.35,817.95 -116.80,817.60"/>
    </edge>
    <edge id=":Edsa_1" function="internal">
        <lane id=":Edsa_1_0" index="0" speed="16.67" length="46.51" shape="-108.00,823.20 -104.80,776.80"/>
        <lane id=":Edsa_1_1" index="1" speed="16.67" length="46.51" shape="-104.80,823.20 -101.60,776.80"/>
    </edge>
    <edge id=":Edsa_3" function="internal">
        <lane id=":Edsa_3_0" index="0" speed="13.15" length="40.13" shape="-101.60,823.20 -100.25,810.95 -96.20,802.20 -89.45,796.95 -80.00,795.20"/>
        <lane id=":Edsa_3_1" index="1" speed="12.72" length="37.45" shape="-101.60,823.20 -100.25,812.35 -96.20,804.60 -89.45,799.95 -80.00,798.40"/>
    </edge>
    <edge id=":Edsa_5" function="internal">
        <lane id=":Edsa_5_0" index="0" speed="6.51" length="9.03" shape="-80.00,817.60 -82.45,817.95 -84.20,819.00 -85.25,820.75 -85.60,823.20"/>
    </edge>
    <edge id=":Edsa_6" function="internal">
        <lane id=":Edsa_6_0" index="0" speed="16.67" length="36.85" shape="-80.00,814.40 -116.80,817.60"/>
        <lane id=":Edsa_6_1" index="1" speed="16.67" length="36.85" shape="-80.00,814.40 -116.80,814.40"/>
        <lane id=":Edsa_6_2" index="2" speed="16.67" length="36.85" shape="-80.00,811.20 -116.80,811.20"/>
        <lane id=":Edsa_6_3" index="3" speed="16.67" length="36.85" shape="-80.00,808.00 -116.80,808.00"/>
        <lane id=":Edsa_6_4" index="4" speed="16.67" length="36.85" shape="-80.00,804.80 -116.80,804.80"/>
        <lane id=":Edsa_6_5" index="5" speed="16.67" length="36.85" shape="-80.00,804.80 -116.80,801.60"/>
    </edge>
    <edge id=":Edsa_12" function="internal">
        <lane id=":Edsa_12_0" index="0" speed="12.72" length="37.45" shape="-80.00,801.60 -89.45,800.05 -96.20,795.40 -100.25,787.65 -101.60,776.80"/>
    </edge>
    <edge id=":Edsa_13" function="internal">
        <lane id=":Edsa_13_0" index="0" speed="7.33" length="11.73" shape="-88.80,776.80 -88.25,779.25 -86.60,781.00 -83.85,782.05 -80.00,782.40"/>
    </edge>
    <edge id=":Edsa_14" function="internal">
        <lane id=":Edsa_14_0" index="0" speed="16.67" length="46.46" shape="-92.00,776.80 -88.80,823.20"/>
        <lane id=":Edsa_14_1" index="1" speed="16.67" length="46.46" shape="-92.00,776.80 -92.00,823.20"/>
        <lane id=":Edsa_14_2" index="2" speed="16.67" length="46.46" shape="-95.20,776.80 -95.20,823.20"/>
        <lane id=":Edsa_14_3" index="3" speed="16.67" length="46.46" shape="-95.20,776.80 -98.40,823.20"/>
    </edge>
    <edge id=":Edsa_18" function="internal">
        <lane id=":Edsa_18_0" index="0" speed="12.76" length="37.73" shape="-98.40,776.80 -99.55,789.05 -103.00,797.80 -108.75,803.05 -116.80,804.80"/>
        <lane id=":Edsa_18_1" index="1" speed="12.30" length="34.99" shape="-98.40,776.80 -99.55,787.65 -103.00,795.40 -108.75,800.05 -116.80,801.60"/>
    </edge>
    <edge id=":Edsa_20" function="internal">
        <lane id=":Edsa_20_0" index="0" speed="8.10" length="14.57" shape="-116.80,782.40 -111.55,782.05 -107.80,781.00 -105.55,779.25 -104.80,776.80"/>
    </edge>
    <edge id=":Edsa_21" function="internal">
        <lane id=":Edsa_21_0" index="0" speed="16.67" length="36.85" shape="-116.80,785.60 -80.00,782.40"/>
        <lane id=":Edsa_21_1" index="1" speed="16.67" length="36.85" shape="-116.80,785.60 -80.00,785.60"/>
        <lane id=":Edsa_21_2" index="2" speed="16.67" length="36.85" shape="-116.80,788.80 -80.00,788.80"/>
        <lane id=":Edsa_21_3" index="3" speed="16.67" length="36.85" shape="-116.80,792.00 -80.00,792.00"/>
        <lane id=":Edsa_21_4" index="4" speed="16.67" length="36.85" shape="-116.80,795.20 -80.00,795.20"/>
        <lane id=":Edsa_21_5" index="5" speed="16.67" length="36.85" shape="-116.80,795.20 -80.00,798.40"/>
    </edge>
    <edge id=":Edsa_27" function="internal">
        <lane id=":Edsa_27_0" index="0" speed="12.72" length="37.45" shape="-116.80,798.40 -107.35,799.95 -100.60,804.60 -96.55,812.35 -95.20,823.20"/>
        <lane id=":Edsa_27_1" index="1" speed="12.30" length="34.99" shape="-116.80,798.40 -108.75,799.95 -103.00,804.60 -99.55,812.35 -98.40,823.20"/>
    </edge>
    <edge id=":J0_0" function="internal">
        <lane id=":J0_0_0" index="0" speed="16.67" length="11.32" shape="-114.40,-496.00 -114.40,-507.20"/>
        <lane id=":J0_0_1" index="1" speed="16.67" length="11.32" shape="-111.20,-496.00 -111.20,-507.20"/>
        <lane id=":J0_0_2" index="2" speed="16.67" length="11.32" shape="-108.00,-496.00 -108.00,-507.20"/>
        <lane id=":J0_0_3" index="3" speed="16.67" length="11.32" shape="-104.80,-496.00 -104.80,-507.20"/>
        <lane id=":J0_0_4" index="4" speed="16.67" length="11.32" shape="-104.80,-496.00 -104.30,-499.39 -103.20,-501.60 -102.10,-503.81 -101.60,-507.20"/>
    </edge>
    <edge id=":J0_5" function="internal">
        <lane id=":J0_5_0" index="0" speed="11.35" length="2.75" shape="-101.60,-496.00 -100.00,-498.24"/>
    </edge>
    <edge id=":J0_14" function="internal">
        <lane id=":J0_14_0" index="0" speed="11.35" length="26.86" shape="-100.00,-498.24 -99.85,-498.45 -94.60,-500.20 -85.85,-501.25 -73.60,-501.60"/>
    </edge>
    <edge id=":J0_6" function="internal">
        <lane id=":J0_6_0" index="0" speed="6.51" length="9.03" shape="-79.20,-507.20 -78.85,-504.75 -77.80,-503.00 -76.05,-501.95 -73.60,-501.60"/>
    </edge>
    <edge id=":J0_7" function="internal">
        <lane id=":J0_7_0" index="0" speed="16.67" length="11.20" shape="-79.20,-507.20 -79.20,-496.00"/>
        <lane id=":J0_7_1" index="1" speed="16.67" length="11.20" shape="-82.40,-507.20 -82.40,-496.00"/>
        <lane id=":J0_7_2" index="2" speed="16.67" length="11.20" shape="-85.60,-507.20 -85.60,-496.00"/>
        <lane id=":J0_7_3" index="3" speed="16.67" length="11.20" shape="-88.80,-507.20 -88.80,-496.00"/>
        <lane id=":J0_7_4" index="4" speed="16.67" length="11.20" shape="-92.00,-507.20 -92.00,-496.00"/>
        <lane id=":J0_7_5" index="5" speed="16.67" length="11.20" shape="-95.20,-507.20 -95.20,-496.00"/>
        <lane id=":J0_7_6" index="6" speed="16.67" length="11.20" shape="-98.40,-507.20 -98.40,-496.00"/>
    </edge>
    <edge id=":J12_0" function="internal">
        <lane id=":J12_0_0" index="0" speed="16.67" length="2.98" shape="-76.02,-1358.93 -76.10,-1355.97"/>
        <lane id=":J12_0_1" index="1" speed="16.67" length="2.98" shape="-79.22,-1358.94 -79.30,-1355.96"/>
        <lane id=":J12_0_2" index="2" speed="16.67" length="2.98" shape="-82.42,-1358.94 -82.50,-1355.96"/>
        <lane id=":J12_0_3" index="3" speed="16.67" length="2.98" shape="-85.62,-1358.95 -85.70,-1355.96"/>
    </edge>
    <edge id=":J12_4" function="internal">
        <lane id=":J12_4_0" index="0" speed="15.28" length="3.02" shape="-88.90,-1358.96 -88.90,-1355.96"/>
        <lane id=":J12_4_1" index="1" speed="15.28" length="3.02" shape="-92.10,-1358.97 -92.10,-1355.96"/>
        <lane id=":J12_4_2" index="2" speed="15.28" length="3.02" shape="-95.30,-1358.97 -95.30,-1355.95"/>
        <lane id=":J12_4_3" index="3" speed="15.28" length="3.02" shape="-98.50,-1358.98 -98.50,-1355.95"/>
    </edge>
    <edge id=":J13_0" function="internal">
        <lane id=":J13_0_0" index="0" speed="16.67" length="15.32" shape="147.77,-1387.16 143.45,-1386.21 140.72,-1384.41 137.98,-1382.67 133.66,-1381.92"/>
    </edge>
    <edge id=":J13_1" function="internal">
        <lane id=":J13_1_0" index="0" speed="15.28" length="13.91" shape="147.58,-1392.16 143.45,-1392.46 140.68,-1393.37 137.90,-1394.34 133.76,-1394.79"/>
        <lane id=":J13_1_1" index="1" speed="15.28" length="13.91" shape="147.40,-1397.15 143.36,-1397.18 140.60,-1397.47 137.84,-1397.82 133.79,-1397.99"/>
    </edge>
    <edge id=":J18_0" function="internal">
        <lane id=":J18_0_0" index="0" speed="16.67" length="9.63" shape="-104.80,204.00 -105.80,201.31 -108.00,200.00 -110.20,198.69 -111.20,196.00"/>
        <lane id=":J18_0_1" index="1" speed="16.67" length="9.63" shape="-101.60,204.00 -102.60,201.31 -104.80,200.00 -107.00,198.69 -108.00,196.00"/>
        <lane id=":J18_0_2" index="2" speed="16.67" length="9.63" shape="-101.60,204.00 -102.10,201.54 -103.20,200.00 -104.30,198.46 -104.80,196.00"/>
        <lane id=":J18_0_3" index="3" speed="16.67" length="9.63" shape="-101.60,204.00 -101.60,196.00"/>
    </edge>
    <edge id=":J20_0" function="internal">
        <lane id=":J20_0_0" index="0" speed="16.67" length="8.81" shape="-114.40,3204.00 -113.90,3201.54 -112.80,3200.00 -111.70,3198.46 -111.20,3196.00"/>
        <lane id=":J20_0_1" index="1" speed="16.67" length="8.81" shape="-111.20,3204.00 -110.70,3201.54 -109.60,3200.00 -108.50,3198.46 -108.00,3196.00"/>
        <lane id=":J20_0_2" index="2" speed="16.67" length="8.81" shape="-108.00,3204.00 -107.50,3201.54 -106.40,3200.00 -105.30,3198.46 -104.80,3196.00"/>
        <lane id=":J20_0_3" index="3" speed="16.67" length="8.81" shape="-104.80,3204.00 -104.30,3201.54 -103.20,3200.00 -102.10,3198.46 -101.60,3196.00"/>
    </edge>
    <edge id=":J20_4" function="internal">
        <lane id=":J20_4_0" index="0" speed="16.67" length="8.81" shape="-85.60,3196.00 -86.10,3198.46 -87.20,3200.00 -88.30,3201.54 -88.80,3204.00"/>
        <lane id=":J20_4_1" index="1" speed="16.67" length="8.81" shape="-88.80,3196.00 -89.30,3198.46 -90.40,3200.00 -91.50,3201.54 -92.00,3204.00"/>
        <lane id=":J20_4_2" index="2" speed="16.67" length="8.81" shape="-92.00,3196.00 -92.50,3198.46 -93.60,3200.00 -94.70,3201.54 -95.20,3204.00"/>
        <lane id=":J20_4_3" index="3" speed="16.67" length="8.81" shape="-95.20,3196.00 -95.70,3198.46 -96.80,3200.00 -97.90,3201.54 -98.40,3204.00"/>
    </edge>
    <edge id=":J25_0" function="internal">
        <lane id=":J25_0_0" index="0" speed="15.28" length="10.04" shape="-111.20,6429.00 -112.20,6426.30 -114.40,6424.99 -116.60,6423.68 -117.60,6420.99"/>
        <lane id=":J25_0_1" index="1" speed="15.28" length="10.04" shape="-108.00,6429.00 -109.00,6426.30 -111.20,6424.99 -113.40,6423.68 -114.40,6420.99"/>
        <lane id=":J25_0_2" index="2" speed="15.28" length="10.04" shape="-104.80,6429.00 -105.80,6426.30 -108.00,6424.99 -110.20,6423.68 -111.20,6420.99"/>
        <lane id=":J25_0_3" index="3" speed="15.28" length="10.04" shape="-101.60,6429.00 -102.60,6426.30 -104.80,6425.00 -107.00,6423.69 -108.00,6421.00"/>
        <lane id=":J25_0_4" index="4" speed="15.28" length="10.04" shape="-101.60,6429.00 -102.10,6426.53 -103.20,6425.00 -104.30,6423.46 -104.80,6421.00"/>
        <lane id=":J25_0_5" index="5" speed="15.28" length="10.04" shape="-101.60,6429.00 -101.60,6421.00"/>
    </edge>
    <edge id=":J29_0" function="internal">
        <lane id=":J29_0_0" index="0" speed="16.67" length="0.10" shape="-111.20,5375.00 -111.20,5375.00"/>
        <lane id=":J29_0_1" index="1" speed="16.67" length="0.10" shape="-108.00,5375.00 -108.00,5375.00"/>
        <lane id=":J29_0_2" index="2" speed="16.67" length="0.10" shape="-104.80,5375.00 -104.80,5375.00"/>
        <lane id=":J29_0_3" index="3" speed="16.67" length="0.10" shape="-101.60,5375.00 -101.60,5375.00"/>
    </edge>
    <edge id=":J29_4" function="internal">
        <lane id=":J29_4_0" index="0" speed="15.28" length="0.10" shape="-88.80,5375.00 -88.80,5375.00"/>
        <lane id=":J29_4_1" index="1" speed="15.28" length="0.10" shape="-92.00,5375.00 -92.00,5375.00"/>
        <lane id=":J29_4_2" index="2" speed="15.28" length="0.10" shape="-95.20,5375.00 -95.20,5375.00"/>
        <lane id=":J29_4_3" index="3" speed="15.28" length="0.10" shape="-98.40,5375.00 -98.40,5375.00"/>
    </edge>
    <edge id=":J3_0" function="internal">
        <lane id=":J3_0_0" index="0" speed="16.67" length="8.64" shape="-111.20,4.00 -111.70,1.54 -112.80,0.00 -113.90,-1.54 -114.40,-4.00"/>
        <lane id=":J3_0_1" index="1" speed="16.67" length="8.64" shape="-108.00,4.00 -108.50,1.54 -109.60,0.00 -110.70,-1.54 -111.20,-4.00"/>
        <lane id=":J3_0_2" index="2" speed="16.67" length="8.64" shape="-104.80,4.00 -105.30,1.54 -106.40,0.00 -107.50,-1.54 -108.00,-4.00"/>
        <lane id=":J3_0_3" index="3" speed="16.67" length="8.64" shape="-101.60,4.00 -102.10,1.54 -103.20,0.00 -104.30,-1.54 -104.80,-4.00"/>
        <lane id=":J3_0_4" index="4" speed="16.67" length="8.64" shape="-101.60,4.00 -101.60,-4.00"/>
    </edge>
    <edge id=":J3_5" function="internal">
        <lane id=":J3_5_0" index="0" speed="16.67" length="13.61" shape="-79.20,-4.00 -80.70,-0.99 -84.00,0.00 -87.30,0.99 -88.80,4.00"/>
        <lane id=":J3_5_1" index="1" speed="16.67" length="13.61" shape="-82.40,-4.00 -83.90,-0.99 -87.20,0.00 -90.50,0.99 -92.00,4.00"/>
        <lane id=":J3_5_2" index="2" speed="16.67" length="13.61" shape="-85.60,-4.00 -87.10,-0.99 -90.40,0.00 -93.70,0.99 -95.20,4.00"/>
        <lane id=":J3_5_3" index="3" speed="16.67" length="13.61" shape="-88.80,-4.00 -90.30,-0.99 -93.60,0.00 -96.90,0.99 -98.40,4.00"/>
    </edge>
    <edge id=":J38_0" function="internal">
        <lane id=":J38_0_0" index="0" speed="15.28" length="8.64" shape="-111.20,6029.00 -111.70,6026.54 -112.80,6025.00 -113.90,6023.46 -114.40,6021.00"/>
        <lane id=":J38_0_1" index="1" speed="15.28" length="8.64" shape="-108.00,6029.00 -108.50,6026.54 -109.60,6025.00 -110.70,6023.46 -111.20,6021.00"/>
        <lane id=":J38_0_2" index="2" speed="15.28" length="8.64" shape="-104.80,6029.00 -105.30,6026.54 -106.40,6025.00 -107.50,6023.46 -108.00,6021.00"/>
        <lane id=":J38_0_3" index="3" speed="15.28" length="8.64" shape="-101.60,6029.00 -102.10,6026.54 -103.20,6025.00 -104.30,6023.46 -104.80,6021.00"/>
        <lane id=":J38_0_4" index="4" speed="15.28" length="8.64" shape="-101.60,6029.00 -101.60,6021.00"/>
    </edge>
    <edge id=":J38_5" function="internal">
        <lane id=":J38_5_0" index="0" speed="13.89" length="8.00" shape="-88.80,6021.00 -88.80,6029.00"/>
        <lane id=":J38_5_1" index="1" speed="13.89" length="8.00" shape="-92.00,6021.00 -92.00,6029.00"/>
        <lane id=":J38_5_2" index="2" speed="13.89" length="8.00" shape="-95.20,6021.00 -95.20,6029.00"/>
        <lane id=":J38_5_3" index="3" speed="13.89" length="8.00" shape="-98.40,6021.00 -98.40,6029.00"/>
    </edge>
    <edge id=":J4_0" function="internal">
        <lane id=":J4_0_0" index="0" speed="16.67" length="10.17" shape="-114.40,-1196.00 -115.40,-1198.69 -117.60,-1200.01 -119.80,-1201.32 -120.80,-1204.01"/>
        <lane id=":J4_0_1" index="1" speed="16.67" length="10.17" shape="-111.20,-1196.00 -112.20,-1198.69 -114.40,-1200.01 -116.60,-1201.32 -117.60,-1204.01"/>
        <lane id=":J4_0_2" index="2" speed="16.67" length="10.17" shape="-108.00,-1196.00 -109.00,-1198.69 -111.20,-1200.01 -113.40,-1201.32 -114.40,-1204.01"/>
        <lane id=":J4_0_3" index="3" speed="16.67" length="10.17" shape="-104.80,-1196.00 -105.80,-1198.69 -108.00,-1200.01 -110.20,-1201.32 -111.20,-1204.01"/>
        <lane id=":J4_0_4" index="4" speed="16.67" length="10.17" shape="-101.60,-1196.00 -102.60,-1198.69 -104.80,-1200.01 -107.00,-1201.32 -108.00,-1204.01"/>
        <lane id=":J4_0_5" index="5" speed="16.67" length="10.17" shape="-101.60,-1196.00 -102.10,-1198.47 -103.20,-1200.01 -104.30,-1201.55 -104.80,-1204.01"/>
        <lane id=":J4_0_6" index="6" speed="16.67" length="10.17" shape="-101.60,-1196.00 -101.60,-1204.01"/>
    </edge>
    <edge id=":J4_7" function="internal">
        <lane id=":J4_7_0" index="0" speed="16.67" length="8.82" shape="-76.00,-1204.01 -76.50,-1201.55 -77.60,-1200.01 -78.70,-1198.47 -79.20,-1196.00"/>
        <lane id=":J4_7_1" index="1" speed="16.67" length="8.82" shape="-79.20,-1204.01 -79.70,-1201.55 -80.80,-1200.01 -81.90,-1198.47 -82.40,-1196.00"/>
        <lane id=":J4_7_2" index="2" speed="16.67" length="8.82" shape="-82.40,-1204.01 -82.90,-1201.55 -84.00,-1200.01 -85.10,-1198.47 -85.60,-1196.00"/>
        <lane id=":J4_7_3" index="3" speed="16.67" length="8.82" shape="-85.60,-1204.01 -86.10,-1201.55 -87.20,-1200.01 -88.30,-1198.47 -88.80,-1196.00"/>
        <lane id=":J4_7_4" index="4" speed="16.67" length="8.82" shape="-88.80,-1204.01 -89.30,-1201.55 -90.40,-1200.01 -91.50,-1198.47 -92.00,-1196.00"/>
        <lane id=":J4_7_5" index="5" speed="16.67" length="8.82" shape="-92.00,-1204.01 -92.50,-1201.55 -93.60,-1200.01 -94.70,-1198.47 -95.20,-1196.00"/>
        <lane id=":J4_7_6" index="6" speed="16.67" length="8.82" shape="-95.20,-1204.01 -95.70,-1201.55 -96.80,-1200.01 -97.90,-1198.47 -98.40,-1196.00"/>
    </edge>
    <edge id=":Kalaw_0" function="internal">
        <lane id=":Kalaw_0_0" index="0" speed="15.28" length="33.60" shape="-111.20,6561.80 -111.20,6528.20"/>
        <lane id=":Kalaw_0_1" index="1" speed="15.28" length="33.60" shape="-108.00,6561.80 -108.00,6528.20"/>
        <lane id=":Kalaw_0_2" index="2" speed="15.28" length="33.60" shape="-104.80,6561.80 -104.80,6528.20"/>
    </edge>
    <edge id=":Kalaw_3" function="internal">
        <lane id=":Kalaw_3_0" index="0" speed="12.76" length="37.73" shape="-101.60,6561.80 -100.45,6549.55 -97.00,6540.80 -91.25,6535.55 -83.20,6533.80"/>
        <lane id=":Kalaw_3_1" index="1" speed="12.30" length="34.99" shape="-101.60,6561.80 -100.45,6550.95 -97.00,6543.20 -91.25,6538.55 -83.20,6537.00"/>
        <lane id=":Kalaw_3_2" index="2" speed="11.84" length="32.30" shape="-101.60,6561.80 -100.45,6552.35 -97.00,6545.60 -91.25,6541.55 -83.20,6540.20"/>
        <lane id=":Kalaw_3_3" index="3" speed="11.36" length="29.67" shape="-101.60,6561.80 -100.45,6553.75 -97.00,6548.00 -91.25,6544.55 -83.20,6543.40"/>
    </edge>
    <edge id=":Kalaw_7" function="internal">
        <lane id=":Kalaw_7_0" index="0" speed="7.33" length="11.73" shape="-83.20,6553.00 -85.65,6553.55 -87.40,6555.20 -88.45,6557.95 -88.80,6561.80"/>
        <lane id=":Kalaw_7_1" index="1" speed="8.00" length="14.19" shape="-83.20,6553.00 -87.05,6553.55 -89.80,6555.20 -91.45,6557.95 -92.00,6561.80"/>
    </edge>
    <edge id=":Kalaw_9" function="internal">
        <lane id=":Kalaw_9_0" index="0" speed="16.67" length="33.75" shape="-83.20,6553.00 -92.40,6553.50 -99.30,6554.60 -106.54,6555.70 -116.80,6556.20"/>
        <lane id=":Kalaw_9_1" index="1" speed="16.67" length="33.75" shape="-83.20,6549.80 -92.40,6550.30 -99.30,6551.40 -106.54,6552.50 -116.80,6553.00"/>
        <lane id=":Kalaw_9_2" index="2" speed="16.67" length="33.75" shape="-83.20,6546.60 -92.40,6547.10 -99.30,6548.20 -106.54,6549.30 -116.80,6549.80"/>
        <lane id=":Kalaw_9_3" index="3" speed="16.67" length="33.75" shape="-83.20,6546.60 -116.80,6546.60"/>
    </edge>
    <edge id=":Kalaw_13" function="internal">
        <lane id=":Kalaw_13_0" index="0" speed="11.49" length="30.37" shape="-83.20,6546.60 -90.32,6544.94 -97.33,6540.64 -102.67,6534.72 -104.80,6528.20"/>
        <lane id=":Kalaw_13_1" index="1" speed="11.36" length="29.67" shape="-83.20,6546.60 -91.25,6545.45 -97.00,6542.00 -100.45,6536.25 -101.60,6528.20"/>
    </edge>
    <edge id=":Kalaw_15" function="internal">
        <lane id=":Kalaw_15_0" index="0" speed="15.28" length="33.60" shape="-88.80,6528.20 -88.80,6561.80"/>
        <lane id=":Kalaw_15_1" index="1" speed="15.28" length="33.60" shape="-92.00,6528.20 -92.00,6561.80"/>
        <lane id=":Kalaw_15_2" index="2" speed="15.28" length="33.60" shape="-95.20,6528.20 -95.20,6561.80"/>
    </edge>
    <edge id=":Kalaw_18" function="internal">
        <lane id=":Kalaw_18_0" index="0" speed="12.76" length="37.73" shape="-98.40,6528.20 -99.55,6540.45 -103.00,6549.20 -108.75,6554.45 -116.80,6556.20"/>
        <lane id=":Kalaw_18_1" index="1" speed="12.30" length="34.99" shape="-98.40,6528.20 -99.55,6539.05 -103.00,6546.80 -108.75,6551.45 -116.80,6553.00"/>
        <lane id=":Kalaw_18_2" index="2" speed="11.84" length="32.30" shape="-98.40,6528.20 -99.55,6537.65 -103.00,6544.40 -108.75,6548.45 -116.80,6549.80"/>
        <lane id=":Kalaw_18_3" index="3" speed="11.36" length="29.67" shape="-98.40,6528.20 -99.55,6536.25 -103.00,6542.00 -108.75,6545.45 -116.80,6546.60"/>
    </edge>
    <edge id=":Kalaw_22" function="internal">
        <lane id=":Kalaw_22_0" index="0" speed="15.28" length="33.65" shape="-116.80,6533.80 -83.20,6533.80"/>
        <lane id=":Kalaw_22_1" index="1" speed="15.28" length="33.65" shape="-116.80,6537.00 -83.20,6537.00"/>
        <lane id=":Kalaw_22_2" index="2" speed="15.28" length="33.65" shape="-116.80,6540.20 -83.20,6540.20"/>
        <lane id=":Kalaw_22_3" index="3" speed="15.28" length="33.65" shape="-116.80,6540.20 -106.80,6540.70 -100.00,6541.80 -93.20,6542.90 -83.20,6543.40"/>
    </edge>
    <edge id=":Kalaw_26" function="internal">
        <lane id=":Kalaw_26_0" index="0" speed="12.64" length="36.97" shape="-116.80,6540.20 -108.68,6542.43 -99.47,6547.95 -91.93,6554.99 -88.80,6561.80"/>
        <lane id=":Kalaw_26_1" index="1" speed="12.72" length="37.45" shape="-116.80,6540.20 -105.95,6541.55 -98.20,6545.60 -93.55,6552.35 -92.00,6561.80"/>
        <lane id=":Kalaw_26_2" index="2" speed="11.49" length="30.37" shape="-116.80,6543.40 -109.68,6545.06 -102.67,6549.36 -97.33,6555.28 -95.20,6561.80"/>
        <lane id=":Kalaw_26_3" index="3" speed="11.36" length="29.67" shape="-116.80,6543.40 -108.75,6544.55 -103.00,6548.00 -99.55,6553.75 -98.40,6561.80"/>
    </edge>
    <edge id=":MIA_0" function="internal">
        <lane id=":MIA_0_0" index="0" speed="6.51" length="9.03" shape="-120.80,-1383.20 -121.15,-1385.65 -122.20,-1387.40 -123.95,-1388.45 -126.40,-1388.80"/>
    </edge>
    <edge id=":MIA_1" function="internal">
        <lane id=":MIA_1_0" index="0" speed="16.67" length="37.55" shape="-117.60,-1383.19 -116.60,-1394.19 -114.40,-1401.59 -112.20,-1408.99 -111.20,-1420.00"/>
        <lane id=":MIA_1_1" index="1" speed="16.67" length="37.55" shape="-114.40,-1383.18 -113.40,-1394.19 -111.20,-1401.59 -109.00,-1408.99 -108.00,-1420.00"/>
        <lane id=":MIA_1_2" index="2" speed="16.67" length="37.55" shape="-111.20,-1383.17 -110.20,-1394.18 -108.00,-1401.59 -105.80,-1408.99 -104.80,-1420.00"/>
        <lane id=":MIA_1_3" index="3" speed="16.67" length="37.55" shape="-108.00,-1383.17 -107.00,-1394.18 -104.80,-1401.58 -102.60,-1408.99 -101.60,-1420.00"/>
    </edge>
    <edge id=":MIA_5" function="internal">
        <lane id=":MIA_5_0" index="0" speed="12.72" length="37.48" shape="-104.80,-1383.16 -103.25,-1392.63 -98.60,-1399.39 -90.85,-1403.45 -80.00,-1404.80"/>
        <lane id=":MIA_5_1" index="1" speed="11.84" length="32.33" shape="-101.60,-1383.15 -100.25,-1391.22 -96.20,-1396.99 -89.45,-1400.45 -80.00,-1401.60"/>
    </edge>
    <edge id=":MIA_7" function="internal">
        <lane id=":MIA_7_0" index="0" speed="15.28" length="46.58" shape="-80.00,-1395.16 -88.66,-1394.18 -99.45,-1391.99 -112.12,-1389.80 -126.40,-1388.80"/>
        <lane id=":MIA_7_1" index="1" speed="15.28" length="46.58" shape="-80.00,-1395.16 -126.40,-1392.00"/>
        <lane id=":MIA_7_2" index="2" speed="15.28" length="46.58" shape="-80.00,-1398.36 -126.40,-1395.20"/>
        <lane id=":MIA_7_3" index="3" speed="15.28" length="46.58" shape="-80.00,-1398.36 -126.40,-1398.40"/>
    </edge>
    <edge id=":MIA_11" function="internal">
        <lane id=":MIA_11_0" index="0" speed="12.73" length="37.46" shape="-80.00,-1398.36 -90.85,-1399.73 -98.60,-1403.80 -103.25,-1410.55 -104.80,-1420.00"/>
        <lane id=":MIA_11_1" index="1" speed="12.29" length="34.85" shape="-80.00,-1398.36 -89.45,-1399.73 -96.20,-1403.79 -100.25,-1410.55 -101.60,-1420.00"/>
    </edge>
    <edge id=":MIA_13" function="internal">
        <lane id=":MIA_13_0" index="0" speed="7.33" length="11.73" shape="-85.60,-1420.00 -85.25,-1416.15 -84.20,-1413.40 -82.45,-1411.75 -80.00,-1411.20"/>
    </edge>
    <edge id=":MIA_14" function="internal">
        <lane id=":MIA_14_0" index="0" speed="15.28" length="37.01" shape="-88.80,-1420.00 -88.84,-1383.12"/>
        <lane id=":MIA_14_1" index="1" speed="15.28" length="37.01" shape="-88.80,-1420.00 -89.30,-1409.03 -90.40,-1401.56 -91.52,-1394.09 -92.04,-1383.13"/>
        <lane id=":MIA_14_2" index="2" speed="15.28" length="37.01" shape="-92.00,-1420.00 -92.50,-1409.04 -93.60,-1401.57 -94.72,-1394.10 -95.24,-1383.14"/>