<?xml version="1.0" encoding="UTF-8"?>

<!-- generated on 2022-06-12 10:59:24 by Eclipse SUMO duarouter Version 1.10.0
<configuration xmlns:xsi="http://www.w3.org/2001/XMLSchema-instance" xsi:noNamespaceSchemaLocation="http://sumo.dlr.de/xsd/duarouterConfiguration.xsd">

    <input>
        <net-file value="roxas.net.xml"/>
        <route-files value="trips.xml"/>
    </input>

    <output>
        <output-file value="roxas.rou.xml"/>
        <alternatives-output value="roxas.rou.alt.xml"/>
    </output>

    <time>
        <begin value="0"/>
        <end value="3600"/>
    </time>

    <report>
        <no-warnings value="true"/>
        <ignore-errors value="true"/>
        <no-step-log value="true"/>
    </report>

</configuration>
-->

<routes xmlns:xsi="http://www.w3.org/2001/XMLSchema-instance" xsi:noNamespaceSchemaLocation="http://sumo.dlr.de/xsd/routes_file.xsd">
    <vehicle id="1" depart="0.42">
        <route edges="-E23 -E8 -E37 -E34 -E29 -E22 -E40 E18 E17"/>
    </vehicle>
    <vehicle id="3" depart="1.27">
        <route edges="E14 E15 -E9"/>
    </vehicle>
    <vehicle id="4" depart="1.70">
        <route edges="-E28 E25 E26 -E8 -E37 -E34 -E29 -E22 -E40 E18 E7 E19 -E2 -E0 E3 E5 -E9"/>
    </vehicle>
    <vehicle id="6" depart="2.55">
        <route edges="-E10 E12 E13 -E3 E0 E2 E38 E11"/>
    </vehicle>
    <vehicle id="8" depart="3.40">
        <route edges="-E21 E22 E29 E34 E37 E8 E24 E28"/>
    </vehicle>
    <vehicle id="9" depart="3.82">
        <route edges="E1 -E0 E3 E5 -E9"/>
    </vehicle>
    <vehicle id="11" depart="4.67">
        <route edges="-E27 E25 E26 -E8 -E37 -E34 -E29 -E22 -E40 E18 E7 E19 -E2 -E0 E3 E5 E10"/>
    </vehicle>
    <vehicle id="13" depart="5.52">
        <route edges="-E17 E7 E19 -E2 -E0 E3 E5 E10"/>
    </vehicle>
    <vehicle id="14" depart="5.95">
        <route edges="E1 E2 E38 -E18 E40 E22 E29 E34 E37 E8 E24 E28"/>
    </vehicle>
    <vehicle id="15" depart="6.37">
        <route edges="E1 E2 E38 -E18 E40 E22 E29 E34 E35"/>
    </vehicle>
    <vehicle id="16" depart="6.80">
        <route edges="-E31 -E22 -E40 E18 E7 E19 -E2 -E0 E3 E5 E6"/>
    </vehicle>
    <vehicle id="17" depart="7.22">
        <route edges="-E27 E28"/>
    </vehicle>
    <vehicle id="18" depart="7.65">
        <route edges="E1 E2 E38 -E18 E40 E22 E29 E34 E37 E8 E24 E28"/>
    </vehicle>
    <vehicle id="19" depart="8.07">
        <route edges="E14 E16 E13 -E3 E0 E2 E38 -E18 E40 E22 E29 E34 E37 E8 E24 E28"/>
    </vehicle>
    <vehicle id="21" depart="8.92">
        <route edges="-E21 E20"/>
    </vehicle>
    <vehicle id="25" depart="10.63">
        <route edges="-E27 E25 E26 -E8 -E37 -E34 -E29 -E22 -E40 E18 E17"/>
    </vehicle>
    <vehicle id="26" depart="11.05">
        <route edges="-E23 -E8 -E37 -E34 -E29 -E22 -E40 E18 E7 E19 -E2 -E0 E3 E5 E6"/>
    </vehicle>
    <vehicle id="28" depart="11.90">
        <route edges="-E20 -E40 E18 E7 E19 -E2 E2 E38 -E18 E40 E22 E29 E34 E35"/>
    </vehicle>
    <vehicle id="29" depart="12.33">
        <route edges="-E20 E21"/>
    </vehicle>
    <vehicle id="30" depart="12.75">
        <route edges="E9 E12 E13 -E3 E0 E2 E38 -E18 E40 E22 E29 E34 E37 E8 E24 E28"/>
    </vehicle>
    <vehicle id="31" depart="13.18">
        <route edges="-E32 E31"/>
    </vehicle>
    <vehicle id="32" depart="13.60">
        <route edges="E1 E2 E38 -E18 E40 E22 E29 E34 E35"/>
    </vehicle>
    <vehicle id="38" depart="16.15">
        <route edges="E14 E16 E13 -E3 E0 E2 E38 -E18 E40 E22 E29 E34 E37 E8 E23"/>
    </vehicle>
    <vehicle id="42" depart="17.85">
        <route edges="-E27 E25 E26 -E8 -E37 -E34 -E29 -E22 -E40 E18 E17"/>
    </vehicle>
    <vehicle id="44" depart="18.70">
        <route edges="-E17 E7 E19 -E2 -E0 E3 E5 -E9"/>
    </vehicle>
    <vehicle id="45" depart="19.13">
        <route edges="-E20 -E40 E18 E7 E19 -E2 E2 E38 -E18 E40 E22 E29 E34 E37 E8 E24 E28"/>
    </vehicle>
    <vehicle id="46" depart="19.55">
        <route edges="E1 E2 E38 -E18 E40 E22 E29 E34 E37 E8 E23"/>
    </vehicle>
    <vehicle id="49" depart="20.83">
        <route edges="E9 E12 E13 -E3 E4"/>
    </vehicle>
    <vehicle id="50" depart="21.25">
        <route edges="-E10 E12 E13 -E3 E0 E2 E38 -E18 E40 E22 E29 E34 E35"/>
    </vehicle>
    <vehicle id="52" depart="22.10">
        <route edges="-E23 E24 E28"/>
    </vehicle>
    <vehicle id="53" depart="22.53">
        <route edges="-E20 -E40 E18 E7 E19 -E2 E2 E38 -E18 E40 E22 E29 E34 E37 E8 E23"/>
    </vehicle>
    <vehicle id="54" depart="22.95">
        <route edges="-E28 E25 E26 -E8 -E37 -E34 -E29 -E22 -E40 E18 E7 E19 -E2 -E0 E3 E5 E6"/>
    </vehicle>
    <vehicle id="56" depart="23.80">
        <route edges="-E31 -E22 -E40 E18 E7 E19 -E2 -E0 E3 E5 E10"/>
    </vehicle>
    <vehicle id="57" depart="24.23">
        <route edges="E14 E16 E13 -E3 E4"/>
    </vehicle>
    <vehicle id="58" depart="24.65">
        <route edges="-E23 E24 E28"/>
    </vehicle>
    <vehicle id="60" depart="25.50">
        <route edges="-E36 E27"/>
    </vehicle>
    <vehicle id="63" depart="26.78">
        <route edges="-E10 E6"/>
    </vehicle>
    <vehicle id="64" depart="27.20">
        <route edges="E14 E16 E13 -E3 E4"/>
    </vehicle>
    <vehicle id="65" depart="27.63">
        <route edges="-E23 -E8 -E37 -E34 -E29 -E22 -E40 E18 E7 E19 -E2 -E0 E3 E5 -E9"/>
    </vehicle>
    <vehicle id="67" depart="28.48">
        <route edges="-E11 -E18 E40 E22 E29 E34 E37 E8 E23"/>
    </vehicle>
    <vehicle id="68" depart="28.90">
        <route edges="-E10 E12 E13 -E3 E0 E2 E38 -E18 E40 E22 E29 E34 E35"/>
    </vehicle>
    <vehicle id="70" depart="29.75">
        <route edges="-E28 E25 E26 -E8 -E37 -E34 -E29 -E22 -E40 E18 E7 E19 -E2 E2 E38 -E18 E40 E22 E29 E34 E37 E8 E24 E28"/>
    </vehicle>
    <vehicle id="72" depart="30.60">
        <route edges="-E28 E25 E26 -E8 -E37 -E34 -E29 -E22 -E40 E18 E17"/>
    </vehicle>
    <vehicle id="73" depart="31.03">
        <route edges="-E31 E29 E34 E35"/>
    </vehicle>
    <vehicle id="74" depart="31.45">
        <route edges="-E21 E20"/>
    </vehicle>
    <vehicle id="76" depart="32.30">
        <route edges="-E28 E27"/>
    </vehicle>
    <vehicle id="77" depart="32.73">
        <route edges="-E20 -E40 E18 E17"/>
    </vehicle>
    <vehicle id="78" depart="33.15">
        <route edges="-E27 E28"/>
    </vehicle>
    <vehicle id="80" depart="34.00">
        <route edges="-E10 E12 E13 -E3 E0 E2 E38 -E18 E40 E22 E29 E34 E37 E8 E24 E28"/>
    </vehicle>
    <vehicle id="82" depart="34.85">
        <route edges="E14 E15 -E9"/>
    </vehicle>
    <vehicle id="85" depart="36.13">
        <route edges="E9 E12 E13 -E3 E0 E2 E38 -E18 E40 E22 E29 E34 E37 E8 E24 E28"/>
    </vehicle>
    <vehicle id="86" depart="36.55">
        <route edges="-E28 E25 E26 -E8 -E37 E35"/>
    </vehicle>
    <vehicle id="87" depart="36.98">
        <route edges="E1 E2 E38 E11"/>
    </vehicle>
    <vehicle id="88" depart="37.40">
        <route edges="-E17 E7 E19 -E2 E2 E38 -E18 E40 E22 E29 E34 E37 E8 E23"/>
    </vehicle>
    <vehicle id="89" depart="37.82">
        <route edges="-E28 E25 E26 E23"/>
    </vehicle>
    <vehicle id="91" depart="38.67">
        <route edges="E9 E10"/>
    </vehicle>
    <vehicle id="94" depart="39.95">
        <route edges="-E21 E22 E29 E34 E37 E8 E23"/>
    </vehicle>
    <vehicle id="98" depart="41.65">
        <route edges="-E31 -E22 -E40 E18 E7 E19 -E2 -E0 E3 E5 -E9"/>
    </vehicle>
    <vehicle id="99" depart="42.07">
        <route edges="E9 E12 E13 -E3 E4"/>
    </vehicle>
    <vehicle id="100" depart="42.50">
        <route edges="E9 E6"/>
    </vehicle>
    <vehicle id="101" depart="42.92">
        <route edges="E1 -E0 E3 E5 E10"/>
    </vehicle>
    <vehicle id="102" depart="43.35">
        <route edges="-E31 -E22 -E40 E18 E17"/>
    </vehicle>
    <vehicle id="103" depart="43.77">
        <route edges="-E27 E25 E26 -E8 -E37 -E34 -E29 -E22 -E40 E18 E7 E19 -E2 -E0 E3 E5 -E9"/>
    </vehicle>
    <vehicle id="104" depart="44.20">
        <route edges="-E27 E25 E26 -E8 -E37 -E34 -E29 -E22 -E40 E18 E7 E19 -E2 -E0 E3 E5 E6"/>
    </vehicle>
    <vehicle id="105" depart="44.62">
        <route edges="-E23 -E8 -E37 E35"/>
    </vehicle>
    <vehicle id="106" depart="45.05">
        <route edges="-E28 E25 E26 E23"/>
    </vehicle>
    <vehicle id="107" depart="45.47">
        <route edges="E9 E6"/>
    </vehicle>
    <vehicle id="110" depart="46.75">
        <route edges="E9 E12 E13 -E3 E0 E2 E38 -E18 E40 E22 E29 E34 E37 E8 E24 E28"/>
    </vehicle>
    <vehicle id="111" depart="47.17">
        <route edges="-E31 E29 E34 E35"/>
    </vehicle>
    <vehicle id="112" depart="47.60">
        <route edges="-E10 E12 E13 -E3 E0 E2 E38 -E18 E40 E22 E29 E34 E37 E8 E24 E28"/>
    </vehicle>
    <vehicle id="114" depart="48.45">
        <route edges="-E20 -E40 E18 E7 E19 -E2 -E0 E3 E5 E6"/>
    </vehicle>
    <vehicle id="116" depart="49.30">
        <route edges="-E32 E31"/>
    </vehicle>
    <vehicle id="120" depart="51.00">
        <route edges="-E28 E25 E26 -E8 -E37 -E34 -E29 -E22 -E40 E18 E7 E19 -E2 E2 E38 -E18 E40 E22 E29 E34 E37 E8 E24 E28"/>
    </vehicle>
    <vehicle id="121" depart="51.42">
        <route edges="-E31 -E22 -E40 E18 E7 E19 -E2 -E0 E3 E5 E6"/>
    </vehicle>
    <vehicle id="125" depart="53.12">
        <route edges="-E23 -E8 -E37 E35"/>
    </vehicle>
    <vehicle id="126" depart="53.55">
        <route edges="-E10 E12 E13 -E3 E0 E2 E38 -E18 E40 E22 E29 E34 E37 E8 E23"/>
    </vehicle>
    <vehicle id="127" depart="53.97">
        <route edges="E9 E6"/>
    </vehicle>
    <vehicle id="129" depart="54.82">
        <route edges="-E23 -E8 -E37 -E34 -E29 -E22 -E40 E18 E7 E19 -E2 -E0 E3 E5 E6"/>
    </vehicle>
    <vehicle id="130" depart="55.25">
        <route edges="E14 E16 E13 -E3 E4"/>
    </vehicle>
    <vehicle id="131" depart="55.67">
        <route edges="-E27 E25 E26 -E8 -E37 -E34 -E29 -E22 -E40 E18 E7 E19 -E2 -E0 E3 E5 E10"/>
    </vehicle>
    <vehicle id="137" depart="58.22">
        <route edges="-E20 -E40 E18 E7 E19 -E2 -E0 E3 E5 E10"/>
    </vehicle>
    <vehicle id="138" depart="58.65">
        <route edges="-E20 -E40 E18 E7 E19 -E2 E2 E38 -E18 E40 E22 E29 E34 E37 E8 E24 E28"/>
    </vehicle>
    <vehicle id="139" depart="59.07">
        <route edges="-E23 E24 E28"/>
    </vehicle>
    <vehicle id="143" depart="60.77">
        <route edges="E1 -E0 E3 E5 -E9"/>
    </vehicle>
    <vehicle id="145" depart="61.62">
        <route edges="-E10 E12 E13 -E3 E0 E2 E38 -E18 E40 E22 E29 E34 E35"/>
    </vehicle>
    <vehicle id="147" depart="62.47">
        <route edges="-E36 E28"/>
    </vehicle>
    <vehicle id="148" depart="62.90">
        <route edges="-E28 E25 E26 -E8 -E37 -E34 -E29 -E22 -E40 E18 E7 E19 -E2 -E0 E3 E5 -E9"/>
    </vehicle>
    <vehicle id="151" depart="64.17">
        <route edges="E1 E2 E38 -E18 E40 E22 E29 E34 E37 E8 E24 E28"/>
    </vehicle>
    <vehicle id="152" depart="64.60">
        <route edges="-E20 -E40 E18 E7 E19 -E2 -E0 E3 E5 E10"/>
    </vehicle>
    <vehicle id="158" depart="67.15">
        <route edges="-E28 E25 E26 -E8 -E37 -E34 -E29 -E22 -E40 E18 E7 E19 -E2 E2 E38 -E18 E40 E22 E29 E34 E37 E8 E24 E28"/>
    </vehicle>
    <vehicle id="159" depart="67.57">
        <route edges="-E20 -E40 E18 E7 E19 -E2 -E0 E3 E5 E6"/>
    </vehicle>
    <vehicle id="162" depart="68.85">
        <route edges="-E10 E12 E13 -E3 E0 E2 E38 -E18 E40 E22 E29 E34 E35"/>
    </vehicle>
    <vehicle id="163" depart="69.27">
        <route edges="-E27 E25 E26 -E8 -E37 -E34 -E29 -E22 -E40 E18 E7 E19 -E2 -E0 E3 E5 E6"/>
    </vehicle>
    <vehicle id="166" depart="70.55">
        <route edges="E1 -E0 E3 E5 E10"/>
    </vehicle>
    <vehicle id="167" depart="70.97">
        <route edges="E14 E16 E13 -E3 E4"/>
    </vehicle>
    <vehicle id="171" depart="72.67">
        <route edges="-E10 E12 E13 -E3 E0 E2 E38 E11"/>
    </vehicle>
    <vehicle id="176" depart="74.80">
        <route edges="E9 E10"/>
    </vehicle>
    <vehicle id="177" depart="75.22">
        <route edges="E9 E10"/>
    </vehicle>
    <vehicle id="179" depart="76.07">
        <route edges="-E20 -E40 E18 E7 E19 -E2 E2 E38 -E18 E40 E22 E29 E34 E37 E8 E23"/>
    </vehicle>
    <vehicle id="182" depart="77.35">
        <route edges="-E27 E28"/>
    </vehicle>
    <vehicle id="183" depart="77.77">
        <route edges="-E23 -E8 -E37 -E34 -E29 E31"/>
    </vehicle>
    <vehicle id="184" depart="78.20">
        <route edges="-E10 E6"/>
    </vehicle>
    <vehicle id="185" depart="78.62">
        <route edges="-E31 E29 E34 E35"/>
    </vehicle>
    <vehicle id="187" depart="79.47">
        <route edges="-E27 E25 E26 -E8 -E37 -E34 -E29 -E22 -E40 E18 E7 E19 -E2 -E0 E3 E5 -E9"/>
    </vehicle>
    <vehicle id="193" depart="82.02">
        <route edges="-E20 -E40 E18 E7 E19 -E2 E2 E38 -E18 E40 E22 E29 E34 E37 E8 E23"/>
    </vehicle>
    <vehicle id="195" depart="82.87">
        <route edges="E14 E16 E13 -E3 E0 E2 E38 -E18 E40 E22 E29 E34 E37 E8 E24 E28"/>
    </vehicle>
    <vehicle id="196" depart="83.30">
        <route edges="-E23 E24 E28"/>
    </vehicle>
    <vehicle id="198" depart="84.15">
        <route edges="-E28 E25 E26 -E8 -E37 -E34 -E29 -E22 -E40 E18 E7 E19 -E2 E2 E38 -E18 E40 E22 E29 E34 E37 E8 E24 E28"/>
    </vehicle>
    <vehicle id="200" depart="85.00">
        <route edges="-E28 E25 E26 -E8 -E37 -E34 -E29 -E22 -E40 E18 E17"/>
    </vehicle>
    <vehicle id="202" depart="85.85">
        <route edges="E1 -E0 E3 E5 E10"/>
    </vehicle>
    <vehicle id="205" depart="87.12">
        <route edges="E1 E2 E38 -E18 E40 E22 E29 E34 E35"/>
    </vehicle>
    <vehicle id="208" depart="88.40">
        <route edges="-E21 E22 E29 E34 E37 E8 E23"/>
    </vehicle>
    <vehicle id="209" depart="88.82">
        <route edges="E1 -E0 E3 E5 -E9"/>
    </vehicle>
    <vehicle id="210" depart="89.25">
        <route edges="-E28 E25 E26 -E8 -E37 -E34 -E29 -E22 -E40 E18 E7 E19 -E2 E2 E38 -E18 E40 E22 E29 E34 E37 E8 E24 E28"/>
    </vehicle>
    <vehicle id="215" depart="91.37">
        <route edges="-E20 -E40 E18 E7 E19 -E2 E2 E38 -E18 E40 E22 E29 E34 E37 E8 E23"/>
    </vehicle>
    <vehicle id="216" depart="91.80">
        <route edges="-E20 -E40 E18 E7 E19 -E2 -E0 E3 E5 E6"/>
    </vehicle>
    <vehicle id="217" depart="92.22">
        <route edges="-E31 -E22 -E40 E18 E7 E19 -E2 -E0 E3 E5 -E9"/>
    </vehicle>
    <vehicle id="219" depart="93.07">
        <route edges="-E28 E25 E26 -E8 -E37 -E34 -E29 -E22 -E40 E18 E7 E19 -E2 E2 E38 -E18 E40 E22 E29 E34 E37 E8 E24 E36"/>
    </vehicle>
    <vehicle id="222" depart="94.35">
        <route edges="E14 E16 E13 -E3 E0 E2 E38 -E18 E40 E22 E29 E34 E37 E8 E24 E28"/>
    </vehicle>
    <vehicle id="223" depart="94.77">
        <route edges="-E36 E27"/>
    </vehicle>
    <vehicle id="224" depart="95.20">
        <route edges="E1 E2 E38 -E18 E40 E22 E29 E34 E37 E8 E24 E28"/>
    </vehicle>
    <vehicle id="225" depart="95.62">
        <route edges="E14 E16 E13 -E3 E0 E2 E38 -E18 E40 E22 E29 E34 E35"/>
    </vehicle>
    <vehicle id="227" depart="96.47">
        <route edges="-E21 E22 E29 E34 E37 E8 E24 E28"/>
    </vehicle>
    <vehicle id="228" depart="96.90">
        <route edges="-E36 E27"/>
    </vehicle>
    <vehicle id="232" depart="98.60">
        <route edges="-E31 -E22 -E40 E18 E7 E19 -E2 -E0 E3 E5 E10"/>
    </vehicle>
    <vehicle id="235" depart="99.87">
        <route edges="-E28 E27"/>
    </vehicle>
    <vehicle id="236" depart="100.30">
        <route edges="-E28 E25 E26 -E8 -E37 -E34 -E29 -E22 -E40 E18 E7 E19 -E2 E2 E38 E11"/>
    </vehicle>
    <vehicle id="238" depart="101.15">
        <route edges="-E32 E31"/>
    </vehicle>
    <vehicle id="239" depart="101.57">
        <route edges="E14 E16 E13 -E3 E0 E2 E38 -E18 E40 E22 E29 E34 E35"/>
    </vehicle>
    <vehicle id="240" depart="102.00">
        <route edges="-E27 E25 E26 -E8 -E37 -E34 -E29 -E22 -E40 E18 E7 E19 -E2 -E0 E3 E5 -E9"/>
    </vehicle>
    <vehicle id="241" depart="102.42">
        <route edges="-E27 E25 E26 -E8 -E37 E35"/>
    </vehicle>
    <vehicle id="243" depart="103.27">
        <route edges="-E28 E25 E26 -E8 -E37 E35"/>
    </vehicle>
    <vehicle id="244" depart="103.70">
        <route edges="-E31 E29 E34 E37 E8 E24 E28"/>
    </vehicle>
    <vehicle id="246" depart="104.55">
        <route edges="-E28 E25 E26 -E8 -E37 -E34 -E29 -E22 -E40 E18 E7 E19 -E2 -E0 E3 E5 -E9"/>
    </vehicle>
    <vehicle id="247" depart="104.97">
        <route edges="-E27 E25 E26 -E8 -E37 -E34 -E29 E31"/>
    </vehicle>
    <vehicle id="248" depart="105.40">
        <route edges="-E28 E25 E26 -E8 -E37 -E34 -E29 -E22 -E40 E18 E7 E19 -E2 -E0 E3 E5 E10"/>
    </vehicle>
    <vehicle id="249" depart="105.82">
        <route edges="-E28 E25 E26 -E8 -E37 -E34 -E29 -E22 -E40 E18 E7 E19 -E2 -E0 E3 E5 E10"/>
    </vehicle>
    <vehicle id="251" depart="106.67">
        <route edges="-E27 E28"/>
    </vehicle>
    <vehicle id="253" depart="107.52">
        <route edges="-E20 -E40 E18 E7 E19 -E2 E2 E38 -E18 E40 E22 E29 E34 E37 E8 E23"/>
    </vehicle>
    <vehicle id="263" depart="111.77">
        <route edges="E9 E12 E13 -E3 E0 E2 E38 E11"/>
    </vehicle>
    <vehicle id="268" depart="113.90">
        <route edges="-E20 -E40 E18 E7 E19 -E2 E2 E38 -E18 E40 E22 E29 E34 E37 E8 E24 E28"/>
    </vehicle>
    <vehicle id="270" depart="114.75">
        <route edges="E1 -E0 E3 E5 E6"/>
    </vehicle>
    <vehicle id="271" depart="115.17">
        <route edges="-E20 -E40 E18 E7 E19 -E2 -E0 E3 E5 -E9"/>
    </vehicle>
    <vehicle id="272" depart="115.60">
        <route edges="-E23 -E8 -E37 -E34 -E29 E31"/>
    </vehicle>
    <vehicle id="276" depart="117.30">
        <route edges="-E17 E7 E19 -E2 E2 E38 -E18 E40 E22 E29 E34 E35"/>
    </vehicle>
    <vehicle id="277" depart="117.72">
        <route edges="E1 E2 E38 -E18 E40 E22 E29 E34 E37 E8 E24 E28"/>
    </vehicle>
    <vehicle id="278" depart="118.15">
        <route edges="-E20 -E40 E18 E7 E19 -E2 -E0 E3 E5 E6"/>
    </vehicle>
    <vehicle id="283" depart="120.27">
        <route edges="-E20 -E40 E18 E7 E19 -E2 -E0 E3 E5 E6"/>
    </vehicle>
    <vehicle id="287" depart="121.97">
        <route edges="-E23 E24 E36"/>
    </vehicle>
    <vehicle id="288" depart="122.40">
        <route edges="-E31 E29 E34 E37 E8 E23"/>
    </vehicle>
    <vehicle id="289" depart="122.82">
        <route edges="-E28 E25 E26 -E8 -E37 E35"/>
    </vehicle>
    <vehicle id="291" depart="123.67">
        <route edges="E1 -E0 E3 E5 -E9"/>
    </vehicle>
    <vehicle id="293" depart="124.52">
        <route edges="-E28 E25 E26 -E8 -E37 -E34 -E29 -E22 -E40 E18 E7 E19 -E2 E2 E38 -E18 E40 E22 E29 E34 E37 E8 E24 E28"/>
    </vehicle>
    <vehicle id="294" depart="124.95">
        <route edges="-E27 E25 E26 -E8 -E37 -E34 -E29 -E22 -E40 E18 E7 E19 -E2 -E0 E3 E5 -E9"/>
    </vehicle>
    <vehicle id="295" depart="125.37">
        <route edges="E14 E15 E10"/>
    </vehicle>
    <vehicle id="296" depart="125.80">
        <route edges="-E21 E22 E29 E34 E37 E8 E24 E36"/>
    </vehicle>
    <vehicle id="299" depart="127.07">
        <route edges="-E10 E6"/>
    </vehicle>
    <vehicle id="300" depart="127.50">
        <route edges="-E11 -E18 E40 E22 E29 E34 E35"/>
    </vehicle>
    <vehicle id="301" depart="127.92">
        <route edges="-E31 E29 E34 E35"/>
    </vehicle>
    <vehicle id="303" depart="128.77">
        <route edges="-E31 E29 E34 E37 E8 E24 E36"/>
    </vehicle>
    <vehicle id="307" depart="130.47">
        <route edges="-E31 E29 E34 E37 E8 E23"/>
    </vehicle>
    <vehicle id="312" depart="132.60">
        <route edges="-E31 E29 E34 E35"/>
    </vehicle>
    <vehicle id="314" depart="133.45">
        <route edges="-E31 E29 E34 E35"/>
    </vehicle>
    <vehicle id="316" depart="134.30">
        <route edges="-E23 -E8 -E37 -E34 -E29 -E22 -E40 E18 E7 E19 -E2 -E0 E3 E5 E10"/>
    </vehicle>
    <vehicle id="317" depart="134.72">
        <route edges="-E21 E20"/>
    </vehicle>
    <vehicle id="320" depart="136.00">
        <route edges="E9 E12 E13 -E3 E0 E2 E38 -E18 E40 E22 E29 E34 E37 E8 E24 E28"/>
    </vehicle>
    <vehicle id="323" depart="137.27">
        <route edges="E14 E16 E13 -E3 E0 E2 E38 -E18 E40 E22 E29 E34 E37 E8 E24 E28"/>
    </vehicle>
    <vehicle id="324" depart="137.70">
        <route edges="-E28 E25 E26 E23"/>
    </vehicle>
    <vehicle id="326" depart="138.55">
        <route edges="E9 E12 E13 -E3 E0 E2 E38 -E18 E40 E22 E29 E34 E37 E8 E23"/>
    </vehicle>
    <vehicle id="328" depart="139.40">
        <route edges="-E10 E12 E13 -E3 E0 E2 E38 -E18 E40 E22 E29 E34 E37 E8 E24 E28"/>
    </vehicle>
    <vehicle id="331" depart="140.67">
        <route edges="E9 E10"/>
    </vehicle>
    <vehicle id="332" depart="141.10">
        <route edges="-E36 E28"/>
    </vehicle>
    <vehicle id="334" depart="141.95">
        <route edges="-E31 E29 E34 E37 E8 E23"/>
    </vehicle>
    <vehicle id="341" depart="144.92">
        <route edges="-E20 -E40 E18 E7 E19 -E2 -E0 E3 E5 -E9"/>
    </vehicle>
    <vehicle id="342" depart="145.35">
        <route edges="-E10 E12 E13 -E3 E0 E2 E38 -E18 E40 E22 E29 E34 E37 E8 E23"/>
    </vehicle>
    <vehicle id="347" depart="147.47">
        <route edges="E1 E2 E38 -E18 E40 E22 E29 E34 E37 E8 E24 E28"/>
    </vehicle>
    <vehicle id="349" depart="148.32">
        <route edges="-E28 E27"/>
    </vehicle>
    <vehicle id="351" depart="149.17">
        <route edges="E1 -E0 E3 E5 -E9"/>
    </vehicle>
    <vehicle id="353" depart="150.02">
        <route edges="-E36 E28"/>
    </vehicle>
    <vehicle id="354" depart="150.45">
        <route edges="-E23 -E8 -E37 -E34 -E29 -E22 -E40 E18 E7 E19 -E2 -E0 E3 E5 E10"/>
    </vehicle>
    <vehicle id="357" depart="151.73">
        <route edges="-E31 -E22 -E40 E18 E7 E19 -E2 -E0 E3 E5 -E9"/>
    </vehicle>
    <vehicle id="358" depart="152.15">
        <route edges="-E10 E12 E13 -E3 E0 E2 E38 -E18 E40 E22 E29 E34 E37 E8 E23"/>
    </vehicle>
    <vehicle id="360" depart="153.00">
        <route edges="-E17 E7 E19 -E2 -E0 E3 E5 E6"/>
    </vehicle>
    <vehicle id="361" depart="153.43">
        <route edges="E1 E2 E38 -E18 E40 E22 E29 E34 E37 E8 E24 E28"/>
    </vehicle>
    <vehicle id="362" depart="153.85">
        <route edges="E9 E6"/>
    </vehicle>
    <vehicle id="364" depart="154.70">
        <route edges="-E10 E12 E13 -E3 E0 E2 E38 -E18 E40 E22 E29 E34 E35"/>
    </vehicle>
    <vehicle id="365" depart="155.13">
        <route edges="-E28 E25 E26 -E8 -E37 -E34 -E29 E31"/>
    </vehicle>
    <vehicle id="366" depart="155.55">
        <route edges="E14 E15 E10"/>
    </vehicle>
    <vehicle id="368" depart="156.40">
        <route edges="-E31 -E22 -E40 E18 E7 E19 -E2 -E0 E3 E5 -E9"/>
    </vehicle>
    <vehicle id="371" depart="157.68">
        <route edges="-E27 E25 E26 -E8 -E37 -E34 -E29 E31"/>
    </vehicle>
    <vehicle id="372" depart="158.10">
        <route edges="-E23 -E8 -E37 -E34 -E29 -E22 -E40 E18 E7 E19 -E2 -E0 E3 E5 E6"/>
    </vehicle>
    <vehicle id="373" depart="158.53">
        <route edges="E1 E2 E38 -E18 E40 E22 E29 E34 E37 E8 E24 E28"/>
    </vehicle>
    <vehicle id="375" depart="159.38">
        <route edges="-E23 -E8 -E37 -E34 -E29 -E22 -E40 E18 E7 E19 -E2 -E0 E3 E5 E6"/>
    </vehicle>
    <vehicle id="376" depart="159.80">
        <route edges="-E28 E27"/>
    </vehicle>
    <vehicle id="380" depart="161.50">
        <route edges="-E36 E28"/>
    </vehicle>
    <vehicle id="382" depart="162.35">
        <route edges="-E31 -E22 -E40 E18 E7 E19 -E2 -E0 E3 E5 E6"/>
    </vehicle>
    <vehicle id="383" depart="162.78">
        <route edges="-E28 E25 E26 -E8 -E37 -E34 -E29 E31"/>
    </vehicle>
    <vehicle id="384" depart="163.20">
        <route edges="-E20 -E40 E18 E7 E19 -E2 -E0 E3 E5 E6"/>
    </vehicle>
    <vehicle id="386" depart="164.05">
        <route edges="-E20 -E40 E18 E7 E19 -E2 E2 E38 -E18 E40 E22 E29 E34 E37 E8 E24 E28"/>
    </vehicle>
    <vehicle id="388" depart="164.90">
        <route edges="E9 E6"/>
    </vehicle>
    <vehicle id="389" depart="165.33">
        <route edges="-E28 E25 E26 -E8 -E37 -E34 -E29 -E22 -E40 E18 E7 E19 -E2 -E0 E3 E5 E10"/>
    </vehicle>
    <vehicle id="391" depart="166.18">
        <route edges="-E36 E27"/>
    </vehicle>
    <vehicle id="396" depart="168.30">
        <route edges="E14 E16 E13 -E3 E4"/>
    </vehicle>
    <vehicle id="397" depart="168.73">
        <route edges="-E23 -E8 -E37 E35"/>
    </vehicle>
    <vehicle id="398" depart="169.15">
        <route edges="-E28 E25 E26 -E8 -E37 -E34 -E29 -E22 -E40 E18 E7 E19 -E2 -E0 E3 E5 E6"/>
    </vehicle>
    <vehicle id="402" depart="170.85">
        <route edges="-E31 -E22 -E40 E18 E7 E19 -E2 -E0 E3 E5 E10"/>
    </vehicle>
    <vehicle id="415" depart="176.38">
        <route edges="E14 E16 E13 -E3 E0 E2 E38 -E18 E40 E22 E29 E34 E37 E8 E23"/>
    </vehicle>
    <vehicle id="416" depart="176.80">
        <route edges="-E31 E29 E34 E37 E8 E23"/>
    </vehicle>
    <vehicle id="419" depart="178.08">
        <route edges="-E28 E25 E26 -E8 -E37 -E34 -E29 -E22 -E40 E18 E7 E19 -E2 -E0 E3 E5 E6"/>
    </vehicle>
    <vehicle id="420" depart="178.50">
        <route edges="-E27 E25 E26 -E8 -E37 -E34 -E29 E31"/>
    </vehicle>
    <vehicle id="422" depart="179.35">
        <route edges="E14 E16 E13 -E3 E4"/>
    </vehicle>
    <vehicle id="425" depart="180.63">
        <route edges="E14 E15 -E9"/>
    </vehicle>
    <vehicle id="426" depart="181.05">
        <route edges="-E10 E12 E13 -E3 E0 E2 E38 -E18 E40 E22 E29 E34 E37 E8 E24 E28"/>
    </vehicle>
    <vehicle id="429" depart="182.33">
        <route edges="-E17 E7 E19 -E2 E2 E38 -E18 E40 E22 E29 E34 E37 E8 E24 E28"/>
    </vehicle>
    <vehicle id="430" depart="182.75">
        <route edges="E14 E16 E13 -E3 E0 E2 E38 -E18 E40 E22 E29 E34 E37 E8 E23"/>
    </vehicle>
    <vehicle id="432" depart="183.60">
        <route edges="-E10 E12 E13 -E3 E0 E2 E38 -E18 E40 E22 E29 E34 E37 E8 E24 E36"/>
    </vehicle>
    <vehicle id="436" depart="185.30">
        <route edges="-E20 -E40 E18 E7 E19 -E2 -E0 E3 E5 -E9"/>
    </vehicle>
    <vehicle id="437" depart="185.73">
        <route edges="E14 E16 E13 -E3 E0 E2 E38 -E18 E40 E22 E29 E34 E37 E8 E24 E28"/>
    </vehicle>
    <vehicle id="439" depart="186.58">
        <route edges="-E20 -E40 E18 E7 E19 -E2 E2 E38 -E18 E40 E22 E29 E34 E37 E8 E23"/>
    </vehicle>
    <vehicle id="441" depart="187.43">
        <route edges="-E10 E12 E13 -E3 E0 E2 E38 -E18 E40 E22 E29 E34 E37 E8 E24 E36"/>
    </vehicle>
    <vehicle id="443" depart="188.28">
        <route edges="-E20 -E40 E18 E7 E19 -E2 E2 E38 -E18 E40 E22 E29 E34 E37 E8 E23"/>
    </vehicle>
    <vehicle id="444" depart="188.70">
        <route edges="-E27 E28"/>
    </vehicle>
    <vehicle id="452" depart="192.10">
        <route edges="-E23 E24 E28"/>
    </vehicle>
    <vehicle id="454" depart="192.95">
        <route edges="-E10 E12 E13 -E3 E0 E2 E38 -E18 E40 E22 E29 E34 E37 E8 E24 E28"/>
    </vehicle>
    <vehicle id="456" depart="193.80">
        <route edges="-E23 E24 E36"/>
    </vehicle>
    <vehicle id="463" depart="196.78">
        <route edges="-E28 E25 E26 -E8 -E37 -E34 -E29 -E22 -E40 E18 E7 E19 -E2 E2 E38 -E18 E40 E22 E29 E34 E37 E8 E24 E28"/>
    </vehicle>
    <vehicle id="465" depart="197.63">
        <route edges="-E23 -E8 -E37 E35"/>
    </vehicle>
    <vehicle id="466" depart="198.05">
        <route edges="-E20 -E40 E18 E7 E19 -E2 -E0 E3 E5 E10"/>
    </vehicle>
    <vehicle id="467" depart="198.48">
        <route edges="-E31 -E22 -E40 E18 E7 E19 -E2 -E0 E3 E5 E6"/>
    </vehicle>
    <vehicle id="468" depart="198.90">
        <route edges="-E31 -E22 -E40 E18 E7 E19 -E2 -E0 E3 E5 E6"/>
    </vehicle>
    <vehicle id="470" depart="199.75">
        <route edges="E1 E2 E38 -E18 E40 E22 E29 E34 E37 E8 E23"/>
    </vehicle>
    <vehicle id="471" depart="200.18">
        <route edges="E1 E2 E38 -E18 E40 E22 E29 E34 E35"/>
    </vehicle>
    <vehicle id="472" depart="200.60">
        <route edges="-E27 E25 E26 -E8 -E37 -E34 -E29 -E22 -E40 E18 E7 E19 -E2 -E0 E3 E5 E10"/>
    </vehicle>
    <vehicle id="473" depart="201.03">
        <route edges="E9 E10"/>
    </vehicle>
    <vehicle id="474" depart="201.45">
        <route edges="E9 E12 E13 -E3 E4"/>
    </vehicle>
    <vehicle id="476" depart="202.30">
        <route edges="E9 E12 E13 -E3 E0 E2 E38 -E18 E40 E22 E29 E34 E37 E8 E24 E36"/>
    </vehicle>
    <vehicle id="477" depart="202.73">
        <route edges="-E27 E25 E26 -E8 -E37 E35"/>
    </vehicle>
    <vehicle id="479" depart="203.58">
        <route edges="-E28 E25 E26 -E8 -E37 -E34 -E29 E31"/>
    </vehicle>
    <vehicle id="481" depart="204.43">
        <route edges="E1 -E0 E3 E5 E6"/>
    </vehicle>
    <vehicle id="483" depart="205.28">
        <route edges="-E10 E12 E13 -E3 E4"/>
    </vehicle>
    <vehicle id="486" depart="206.55">
        <route edges="E1 -E0 E3 E5 E6"/>
    </vehicle>
    <vehicle id="488" depart="207.40">
        <route edges="-E20 -E40 E18 E7 E19 -E2 -E0 E3 E5 E6"/>
    </vehicle>
    <vehicle id="491" depart="208.68">
        <route edges="-E20 -E40 E18 E7 E19 -E2 E2 E38 -E18 E40 E22 E29 E34 E37 E8 E23"/>
    </vehicle>
    <vehicle id="493" depart="209.53">
        <route edges="E9 E12 E13 -E3 E0 E2 E38 -E18 E40 E22 E29 E34 E37 E8 E23"/>
    </vehicle>
    <vehicle id="495" depart="210.38">
        <route edges="-E28 E25 E26 -E8 -E37 -E34 -E29 -E22 -E40 E18 E7 E19 -E2 -E0 E3 E5 E10"/>
    </vehicle>
    <vehicle id="498" depart="211.65">
        <route edges="-E27 E25 E26 E23"/>
    </vehicle>
    <vehicle id="499" depart="212.08">
        <route edges="E9 E12 E13 -E3 E4"/>
    </vehicle>
    <vehicle id="501" depart="212.93">
        <route edges="-E31 -E22 -E40 E18 E7 E19 -E2 -E0 E3 E5 E6"/>
    </vehicle>
    <vehicle id="504" depart="214.20">
        <route edges="E1 E2 E38 -E18 E40 E22 E29 E34 E37 E8 E23"/>
    </vehicle>
    <vehicle id="508" depart="215.90">