<?xml version="1.0" encoding="UTF-8"?>

<!-- generated on 2022-03-10 15:53:56 by Eclipse SUMO netedit Version 1.11.0
<configuration xmlns:xsi="http://www.w3.org/2001/XMLSchema-instance" xsi:noNamespaceSchemaLocation="http://sumo.dlr.de/xsd/netconvertConfiguration.xsd">

    <output>
        <output-file value="C:\Users\Lance\Desktop\Trial\Trial.net.xml"/>
    </output>

    <processing>
        <offset.disable-normalization value="true"/>
    </processing>

    <junctions>
        <no-turnarounds value="true"/>
    </junctions>

    <netedit>
        <route-files value="C:\Users\Lance\Desktop\Trial\try.rou.xml"/>
    </netedit>

    <report>
        <aggregate-warnings value="5"/>
    </report>

</configuration>
-->

<net version="1.9" junctionCornerDetail="5" limitTurnSpeed="5.50" xmlns:xsi="http://www.w3.org/2001/XMLSchema-instance" xsi:noNamespaceSchemaLocation="http://sumo.dlr.de/xsd/net_file.xsd">

    <location netOffset="0.00,0.00" convBoundary="-1100.00,-1200.00,2100.00,1200.00" origBoundary="10000000000.00,10000000000.00,-10000000000.00,-10000000000.00" projParameter="!"/>

    <edge id=":J20_0" function="internal">
        <lane id=":J20_0_0" index="0" speed="6.51" length="9.03" shape="392.00,113.60 391.65,111.15 390.60,109.40 388.85,108.35 386.40,108.00"/>
    </edge>
    <edge id=":J20_1" function="internal">
        <lane id=":J20_1_0" index="0" speed="36.95" length="27.20" shape="392.00,113.60 392.00,86.40"/>
        <lane id=":J20_1_1" index="1" speed="36.95" length="27.20" shape="395.20,113.60 395.20,86.40"/>
        <lane id=":J20_1_2" index="2" speed="36.95" length="27.20" shape="398.40,113.60 398.40,86.40"/>
    </edge>
    <edge id=":J20_4" function="internal">
        <lane id=":J20_4_0" index="0" speed="10.36" length="7.98" shape="398.40,113.60 399.35,106.95 400.00,105.87"/>
    </edge>
    <edge id=":J20_20" function="internal">
        <lane id=":J20_20_0" index="0" speed="10.36" length="16.53" shape="400.00,105.87 402.20,102.20 406.95,99.35 413.60,98.40"/>
    </edge>
    <edge id=":J20_5" function="internal">
        <lane id=":J20_5_0" index="0" speed="6.51" length="9.03" shape="413.60,108.00 411.15,108.35 409.40,109.40 408.35,111.15 408.00,113.60"/>
    </edge>
    <edge id=":J20_6" function="internal">
        <lane id=":J20_6_0" index="0" speed="60.00" length="27.20" shape="413.60,108.00 386.40,108.00"/>
        <lane id=":J20_6_1" index="1" speed="60.00" length="27.20" shape="413.60,104.80 386.40,104.80"/>
        <lane id=":J20_6_2" index="2" speed="60.00" length="27.20" shape="413.60,101.60 386.40,101.60"/>
    </edge>
    <edge id=":J20_9" function="internal">
        <lane id=":J20_9_0" index="0" speed="10.36" length="7.98" shape="413.60,101.60 406.95,100.65 405.87,100.00"/>
    </edge>
    <edge id=":J20_21" function="internal">
        <lane id=":J20_21_0" index="0" speed="10.36" length="16.53" shape="405.87,100.00 402.20,97.80 399.35,93.05 398.40,86.40"/>
    </edge>
    <edge id=":J20_10" function="internal">
        <lane id=":J20_10_0" index="0" speed="6.51" length="9.03" shape="408.00,86.40 408.35,88.85 409.40,90.60 411.15,91.65 413.60,92.00"/>
    </edge>
    <edge id=":J20_11" function="internal">
        <lane id=":J20_11_0" index="0" speed="36.95" length="27.20" shape="408.00,86.40 408.00,113.60"/>
        <lane id=":J20_11_1" index="1" speed="36.95" length="27.20" shape="404.80,86.40 404.80,113.60"/>
        <lane id=":J20_11_2" index="2" speed="36.95" length="27.20" shape="401.60,86.40 401.60,113.60"/>
    </edge>
    <edge id=":J20_14" function="internal">
        <lane id=":J20_14_0" index="0" speed="10.36" length="7.98" shape="401.60,86.40 400.65,93.05 400.00,94.13"/>
    </edge>
    <edge id=":J20_22" function="internal">
        <lane id=":J20_22_0" index="0" speed="10.36" length="16.53" shape="400.00,94.13 397.80,97.80 393.05,100.65 386.40,101.60"/>
    </edge>
    <edge id=":J20_15" function="internal">
        <lane id=":J20_15_0" index="0" speed="6.51" length="9.03" shape="386.40,92.00 388.85,91.65 390.60,90.60 391.65,88.85 392.00,86.40"/>
    </edge>
    <edge id=":J20_16" function="internal">
        <lane id=":J20_16_0" index="0" speed="60.00" length="27.20" shape="386.40,92.00 413.60,92.00"/>
        <lane id=":J20_16_1" index="1" speed="60.00" length="27.20" shape="386.40,95.20 413.60,95.20"/>
        <lane id=":J20_16_2" index="2" speed="60.00" length="27.20" shape="386.40,98.40 413.60,98.40"/>
    </edge>
    <edge id=":J20_19" function="internal">
        <lane id=":J20_19_0" index="0" speed="10.36" length="7.98" shape="386.40,98.40 393.05,99.35 394.13,100.00"/>
    </edge>
    <edge id=":J20_23" function="internal">
        <lane id=":J20_23_0" index="0" speed="10.36" length="16.53" shape="394.13,100.00 397.80,102.20 400.65,106.95 401.60,113.60"/>
    </edge>

    <edge id="bottom_in" from="J23" to="J20" priority="-1">
        <lane id="bottom_in_0" index="0" speed="13.89" length="1286.40" shape="408.00,-1200.00 408.00,86.40"/>
        <lane id="bottom_in_1" index="1" speed="13.89" length="1286.40" shape="404.80,-1200.00 404.80,86.40"/>
        <lane id="bottom_in_2" index="2" speed="13.89" length="1286.40" shape="401.60,-1200.00 401.60,86.40"/>
    </edge>
    <edge id="bottom_out" from="J20" to="J23" priority="-1">
        <lane id="bottom_out_0" index="0" speed="13.89" length="1286.40" shape="392.00,86.40 392.00,-1200.00"/>
        <lane id="bottom_out_1" index="1" speed="13.89" length="1286.40" shape="395.20,86.40 395.20,-1200.00"/>
        <lane id="bottom_out_2" index="2" speed="13.89" length="1286.40" shape="398.40,86.40 398.40,-1200.00"/>
    </edge>
    <edge id="left_in" from="J19" to="J20" priority="-1">
        <lane id="left_in_0" index="0" speed="60.00" length="1486.40" shape="-1100.00,92.00 386.40,92.00"/>
        <lane id="left_in_1" index="1" speed="60.00" length="1486.40" shape="-1100.00,95.20 386.40,95.20"/>
        <lane id="left_in_2" index="2" speed="60.00" length="1486.40" shape="-1100.00,98.40 386.40,98.40"/>
    </edge>
    <edge id="left_out" from="J20" to="J19" priority="-1">
        <lane id="left_out_0" index="0" speed="60.00" length="1486.40" shape="386.40,108.00 -1100.00,108.00"/>
        <lane id="left_out_1" index="1" speed="60.00" length="1486.40" shape="386.40,104.80 -1100.00,104.80"/>
        <lane id="left_out_2" index="2" speed="60.00" length="1486.40" shape="386.40,101.60 -1100.00,101.60"/>
    </edge>
    <edge id="right_in" from="J22" to="J20" priority="-1">
        <lane id="right_in_0" index="0" speed="60.00" length="1686.40" shape="2100.00,108.00 413.60,108.00"/>
        <lane id="right_in_1" index="1" speed="60.00" length="1686.40" shape="2100.00,104.80 413.60,104.80"/>
        <lane id="right_in_2" index="2" speed="60.00" length="1686.40" shape="2100.00,101.60 413.60,101.60"/>
    </edge>
    <edge id="right_out" from="J20" to="J22" priority="-1">
        <lane id="right_out_0" index="0" speed="60.00" length="1686.40" shape="413.60,92.00 2100.00,92.00"/>
        <lane id="right_out_1" index="1" speed="60.00" length="1686.40" shape="413.60,95.20 2100.00,95.20"/>
        <lane id="right_out_2" index="2" speed="60.00" length="1686.40" shape="413.60,98.40 2100.00,98.40"/>
    </edge>
    <edge id="top_in" from="J21" to="J20" priority="-1">
        <lane id="top_in_0" index="0" speed="60.00" length="1086.40" shape="392.00,1200.00 392.00,113.60"/>
        <lane id="top_in_1" index="1" speed="60.00" length="1086.40" shape="395.20,1200.00 395.20,113.60"/>
        <lane id="top_in_2" index="2" speed="60.00" length="1086.40" shape="398.40,1200.00 398.40,113.60"/>
    </edge>
    <edge id="top_out" from="J20" to="J21" priority="-1">
        <lane id="top_out_0" index="0" speed="60.00" length="1086.40" shape="408.00,113.60 408.00,1200.00"/>
        <lane id="top_out_1" index="1" speed="60.00" length="1086.40" shape="404.80,113.60 404.80,1200.00"/>
        <lane id="top_out_2" index="2" speed="60.00" length="1086.40" shape="401.60,113.60 401.60,1200.00"/>
    </edge>

    <tlLogic id="J20" type="static" programID="0" offset="0">
        <phase duration="3" state="rrrrrGGGGgrrrrrGGGGg"/>
        <phase duration="1" state="rrrrryyyyyrrrrryyyyy"/>
        <phase duration="3" state="GGGGgrrrrrGGGGgrrrrr"/>
        <phase duration="1" state="yyyyyrrrrryyyyyrrrrr"/>
    </tlLogic>

    <junction id="J19" type="dead_end" x="-1100.00" y="100.00" incLanes="left_out_0 left_out_1 left_out_2" intLanes="" shape="-1100.00,100.00 -1100.00,109.60 -1100.00,100.00"/>
    <junction id="J20" type="traffic_light" x="400.00" y="100.00" incLanes="top_in_0 top_in_1 top_in_2 right_in_0 right_in_1 right_in_2 bottom_in_0 bottom_in_1 bottom_in_2 left_in_0 left_in_1 left_in_2" intLanes=":J20_0_0 :J20_1_0 :J20_1_1 :J20_1_2 :J20_20_0 :J20_5_0 :J20_6_0 :J20_6_1 :J20_6_2 :J20_21_0 :J20_10_0 :J20_11_0 :J20_11_1 :J20_11_2 :J20_22_0 :J20_15_0 :J20_16_0 :J20_16_1 :J20_16_2 :J20_23_0" shape="390.40,113.60 409.60,113.60 410.04,111.38 410.60,110.60 411.38,110.04 412.38,109.71 413.60,109.60 413.60,90.40 411.38,89.96 410.60,89.40 410.04,88.62 409.71,87.62 409.60,86.40 390.40,86.40 389.96,88.62 389.40,89.40 388.62,89.96 387.62,90.29 386.40,90.40 386.40,109.60 388.62,110.04 389.40,110.60 389.96,111.38 390.29,112.38">
        <request index="0"  response="00000000000111000000" foes="00000000000111000000" cont="0"/>
        <request index="1"  response="11111000001111000000" foes="11111100001111000000" cont="0"/>
        <request index="2"  response="11111000001111000000" foes="11111100001111000000" cont="0"/>
        <request index="3"  response="11111000001111000000" foes="11111100001111000000" cont="0"/>
        <request index="4"  response="11110011101111000000" foes="11110011101111000000" cont="1"/>
        <request index="5"  response="00000000000000000000" foes="00000011100000000000" cont="0"/>
        <request index="6"  response="00000100000000010000" foes="10000111100000011111" cont="0"/>
        <request index="7"  response="00000100000000010000" foes="10000111100000011111" cont="0"/>
        <request index="8"  response="00000100000000010000" foes="10000111100000011111" cont="0"/>
        <request index="9"  response="01110100000000010000" foes="01110111100000011110" cont="1"/>
        <request index="10" response="01110000000000000000" foes="01110000000000000000" cont="0"/>
        <request index="11" response="11110000001111100000" foes="11110000001111110000" cont="0"/>
        <request index="12" response="11110000001111100000" foes="11110000001111110000" cont="0"/>
        <request index="13" response="11110000001111100000" foes="11110000001111110000" cont="0"/>
        <request index="14" response="11110000001111001110" foes="11110000001111001110" cont="1"/>
        <request index="15" response="00000000000000000000" foes="00000000000000001110" cont="0"/>
        <request index="16" response="00000100000000010000" foes="00000111111000011110" cont="0"/>
        <request index="17" response="00000100000000010000" foes="00000111111000011110" cont="0"/>
        <request index="18" response="00000100000000010000" foes="00000111111000011110" cont="0"/>
        <request index="19" response="00000100000111010000" foes="00000111100111011110" cont="1"/>
    </junction>
    <junction id="J21" type="dead_end" x="400.00" y="1200.00" incLanes="top_out_0 top_out_1 top_out_2" intLanes="" shape="400.00,1200.00 409.60,1200.00 400.00,1200.00"/>
    <junction id="J22" type="dead_end" x="2100.00" y="100.00" incLanes="right_out_0 right_out_1 right_out_2" intLanes="" shape="2100.00,100.00 2100.00,90.40 2100.00,100.00"/>
    <junction id="J23" type="dead_end" x="400.00" y="-1200.00" incLanes="bottom_out_0 bottom_out_1 bottom_out_2" intLanes="" shape="400.00,-1200.00 390.40,-1200.00 400.00,-1200.00"/>

    <junction id=":J20_20_0" type="internal" x="400.00" y="105.87" incLanes=":J20_4_0 bottom_in_0 bottom_in_1 bottom_in_2" intLanes=":J20_6_0 :J20_6_1 :J20_6_2 :J20_9_0 :J20_10_0 :J20_11_0 :J20_11_1 :J20_11_2 :J20_16_0 :J20_16_1 :J20_16_2 :J20_19_0"/>
    <junction id=":J20_21_0" type="internal" x="405.87" y="100.00" incLanes=":J20_9_0 left_in_0 left_in_1 left_in_2" intLanes=":J20_1_0 :J20_1_1 :J20_1_2 :J20_4_0 :J20_11_0 :J20_11_1 :J20_11_2 :J20_14_0 :J20_15_0 :J20_16_0 :J20_16_1 :J20_16_2"/>
    <junction id=":J20_22_0" type="internal" x="400.00" y="94.13" incLanes=":J20_14_0 top_in_0 top_in_1 top_in_2" intLanes=":J20_0_0 :J20_1_0 :J20_1_1 :J20_1_2 :J20_6_0 :J20_6_1 :J20_6_2 :J20_9_0 :J20_16_0 :J20_16_1 :J20_16_2 :J20_19_0"/>
    <junction id=":J20_23_0" type="internal" x="394.13" y="100.00" incLanes=":J20_19_0 right_in_0 right_in_1 right_in_2" intLanes=":J20_1_0 :J20_1_1 :J20_1_2 :J20_4_0 :J20_5_0 :J20_6_0 :J20_6_1 :J20_6_2 :J20_11_0 :J20_11_1 :J20_11_2 :J20_14_0"/>

    <connection from="bottom_in" to="right_out" fromLane="0" toLane="0" via=":J20_10_0" tl="J20" linkIndex="10" dir="r" state="o"/>
    <connection from="bottom_in" to="top_out" fromLane="0" toLane="0" via=":J20_11_0" tl="J20" linkIndex="11" dir="s" state="o"/>
    <connection from="bottom_in" to="top_out" fromLane="1" toLane="1" via=":J20_11_1" tl="J20" linkIndex="12" dir="s" state="o"/>
    <connection from="bottom_in" to="top_out" fromLane="2" toLane="2" via=":J20_11_2" tl="J20" linkIndex="13" dir="s" state="o"/>
    <connection from="bottom_in" to="left_out" fromLane="2" toLane="2" via=":J20_14_0" tl="J20" linkIndex="14" dir="l" state="o"/>
    <connection from="left_in" to="bottom_out" fromLane="0" toLane="0" via=":J20_15_0" tl="J20" linkIndex="15" dir="r" state="O"/>
    <connection from="left_in" to="right_out" fromLane="0" toLane="0" via=":J20_16_0" tl="J20" linkIndex="16" dir="s" state="O"/>
    <connection from="left_in" to="right_out" fromLane="1" toLane="1" via=":J20_16_1" tl="J20" linkIndex="17" dir="s" state="O"/>
    <connection from="left_in" to="right_out" fromLane="2" toLane="2" via=":J20_16_2" tl="J20" linkIndex="18" dir="s" state="O"/>
    <connection from="left_in" to="top_out" fromLane="2" toLane="2" via=":J20_19_0" tl="J20" linkIndex="19" dir="l" state="o"/>
    <connection from="right_in" to="top_out" fromLane="0" toLane="0" via=":J20_5_0" tl="J20" linkIndex="5" dir="r" state="O"/>
    <connection from="right_in" to="left_out" fromLane="0" toLane="0" via=":J20_6_0" tl="J20" linkIndex="6" dir="s" state="O"/>
    <connection from="right_in" to="left_out" fromLane="1" toLane="1" via=":J20_6_1" tl="J20" linkIndex="7" dir="s" state="O"/>
    <connection from="right_in" to="left_out" fromLane="2" toLane="2" via=":J20_6_2" tl="J20" linkIndex="8" dir="s" state="O"/>
    <connection from="right_in" to="bottom_out" fromLane="2" toLane="2" via=":J20_9_0" tl="J20" linkIndex="9" dir="l" state="o"/>
    <connection from="top_in" to="left_out" fromLane="0" toLane="0" via=":J20_0_0" tl="J20" linkIndex="0" dir="r" state="o"/>
    <connection from="top_in" to="bottom_out" fromLane="0" toLane="0" via=":J20_1_0" tl="J20" linkIndex="1" dir="s" state="o"/>
    <connection from="top_in" to="bottom_out" fromLane="1" toLane="1" via=":J20_1_1" tl="J20" linkIndex="2" dir="s" state="o"/>
    <connection from="top_in" to="bottom_out" fromLane="2" toLane="2" via=":J20_1_2" tl="J20" linkIndex="3" dir="s" state="o"/>
    <connection from="top_in" to="right_out" fromLane="2" toLane="2" via=":J20_4_0" tl="J20" linkIndex="4" dir="l" state="o"/>

    <connection from=":J20_0" to="left_out" fromLane="0" toLane="0" dir="r" state="M"/>
    <connection from=":J20_1" to="bottom_out" fromLane="0" toLane="0" dir="s" state="M"/>
    <connection from=":J20_1" to="bottom_out" fromLane="1" toLane="1" dir="s" state="M"/>
    <connection from=":J20_1" to="bottom_out" fromLane="2" toLane="2" dir="s" state="M"/>
    <connection from=":J20_4" to="right_out" fromLane="0" toLane="2" via=":J20_20_0" dir="l" state="m"/>
    <connection from=":J20_20" to="right_out" fromLane="0" toLane="2" dir="l" state="M"/>
    <connection from=":J20_5" to="top_out" fromLane="0" toLane="0" dir="r" state="M"/>
    <connection from=":J20_6" to="left_out" fromLane="0" toLane="0" dir="s" state="M"/>
    <connection from=":J20_6" to="left_out" fromLane="1" toLane="1" dir="s" state="M"/>
    <connection from=":J20_6" to="left_out" fromLane="2" toLane="2" dir="s" state="M"/>
    <connection from=":J20_9" to="bottom_out" fromLane="0" toLane="2" via=":J20_21_0" dir="l" state="m"/>
    <connection from=":J20_21" to="bottom_out" fromLane="0" toLane="2" dir="l" state="M"/>
    <connection from=":J20_10" to="right_out" fromLane="0" toLane="0" dir="r" state="M"/>
    <connection from=":J20_11" to="top_out" fromLane="0" toLane="0" dir="s" state="M"/>
    <connection from=":J20_11" to="top_out" fromLane="1" toLane="1" dir="s" state="M"/>
    <connection from=":J20_11" to="top_out" fromLane="2" toLane="2" dir="s" state="M"/>
    <connection from=":J20_14" to="left_out" fromLane="0" toLane="2" via=":J20_22_0" dir="l" state="m"/>
    <connection from=":J20_22" to="left_out" fromLane="0" toLane="2" dir="l" state="M"/>
    <connection from=":J20_15" to="bottom_out" fromLane="0" toLane="0" dir="r" state="M"/>
    <connection from=":J20_16" to="right_out" fromLane="0" toLane="0" dir="s" state="M"/>
    <connection from=":J20_16" to="right_out" fromLane="1" toLane="1" dir="s" state="M"/>
    <connection from=":J20_16" to="right_out" fromLane="2" toLane="2" dir="s" state="M"/>
    <connection from=":J20_19" to="top_out" fromLane="0" toLane="2" via=":J20_23_0" dir="l" state="m"/>
    <connection from=":J20_23" to="top_out" fromLane="0" toLane="2" dir="l" state="M"/>

</net>
