<routes>
    <vType accel="0.8" id="standard_car" decel="4.5" length="5.0" minGap="2.5" maxSpeed="16.67" sigma="0.5" />
    
    <route id="-E27_to_E28" edges="-E27 E28" />
    <route id="-E27_to_E36" edges="-E27 E36" />
    <route id="-E27_to_E25" edges="-E27 E25" />
    <route id="-E28_to_E25" edges="-E28 E25" />
    <route id="-E28_to_E27" edges="-E28 E27" />
    <route id="-E36_to_E27" edges="-E36 E27" />
    <route id="-E36_to_E28" edges="-E36 E28" />
    <route id="E24_to_E28" edges="E24 E28" />
    <route id="E24_to_E36" edges="E24 E36" />
    <vehicle id="-E27_to_E28_0" type="standard_car" route="-E27_to_E28" depart="8.0" departLane="random" />
    <vehicle id="-E27_to_E25_1" type="standard_car" route="-E27_to_E25" depart="8.0" departLane="random" />
    <vehicle id="-E36_to_E27_2" type="standard_car" route="-E36_to_E27" depart="66.0" departLane="random" />
    <vehicle id="-E27_to_E36_3" type="standard_car" route="-E27_to_E36" depart="100.0" departLane="random" />
    <vehicle id="E24_to_E28_4" type="standard_car" route="E24_to_E28" depart="119.0" departLane="random" />
    <vehicle id="-E27_to_E25_5" type="standard_car" route="-E27_to_E25" depart="122.0" departLane="random" />
    <vehicle id="-E28_to_E27_6" type="standard_car" route="-E28_to_E27" depart="122.0" departLane="random" />
    <vehicle id="E24_to_E28_7" type="standard_car" route="E24_to_E28" depart="146.0" departLane="random" />
    <vehicle id="-E27_to_E36_8" type="standard_car" route="-E27_to_E36" depart="149.0" departLane="random" />
    <vehicle id="-E28_to_E25_9" type="standard_car" route="-E28_to_E25" depart="149.0" departLane="random" />
    <vehicle id="-E27_to_E25_10" type="standard_car" route="-E27_to_E25" depart="169.0" departLane="random" />
    <vehicle id="E24_to_E28_11" type="standard_car" route="E24_to_E28" depart="213.0" departLane="random" />
    <vehicle id="-E36_to_E27_12" type="standard_car" route="-E36_to_E27" depart="214.0" departLane="random" />
    <vehicle id="-E36_to_E27_13" type="standard_car" route="-E36_to_E27" depart="219.0" departLane="random" />
    <vehicle id="-E28_to_E27_14" type="standard_car" route="-E28_to_E27" depart="222.0" departLane="random" />
    <vehicle id="-E36_to_E27_15" type="standard_car" route="-E36_to_E27" depart="225.0" departLane="random" />
    <vehicle id="E24_to_E28_16" type="standard_car" route="E24_to_E28" depart="227.0" departLane="random" />
    <vehicle id="-E28_to_E25_17" type="standard_car" route="-E28_to_E25" depart="279.0" departLane="random" />
    <vehicle id="E24_to_E28_18" type="standard_car" route="E24_to_E28" depart="305.0" departLane="random" />
    <vehicle id="-E36_to_E28_19" type="standard_car" route="-E36_to_E28" depart="305.0" departLane="random" />
    <vehicle id="E24_to_E36_20" type="standard_car" route="E24_to_E36" depart="322.0" departLane="random" />
    <vehicle id="-E36_to_E28_21" type="standard_car" route="-E36_to_E28" depart="326.0" departLane="random" />
    <vehicle id="-E27_to_E36_22" type="standard_car" route="-E27_to_E36" depart="326.0" departLane="random" />
    <vehicle id="-E28_to_E27_23" type="standard_car" route="-E28_to_E27" depart="342.0" departLane="random" />
    <vehicle id="-E36_to_E27_24" type="standard_car" route="-E36_to_E27" depart="347.0" departLane="random" />
    <vehicle id="-E36_to_E27_25" type="standard_car" route="-E36_to_E27" depart="353.0" departLane="random" />
    <vehicle id="-E27_to_E28_26" type="standard_car" route="-E27_to_E28" depart="356.0" departLane="random" />
    <vehicle id="-E27_to_E36_27" type="standard_car" route="-E27_to_E36" depart="361.0" departLane="random" />
    <vehicle id="E24_to_E28_28" type="standard_car" route="E24_to_E28" depart="363.0" departLane="random" />
    <vehicle id="-E36_to_E27_29" type="standard_car" route="-E36_to_E27" depart="364.0" departLane="random" />
    <vehicle id="-E27_to_E36_30" type="standard_car" route="-E27_to_E36" depart="372.0" departLane="random" />
    <vehicle id="-E36_to_E28_31" type="standard_car" route="-E36_to_E28" depart="372.0" departLane="random" />
    <vehicle id="-E28_to_E25_32" type="standard_car" route="-E28_to_E25" depart="373.0" departLane="random" />
    <vehicle id="-E27_to_E36_33" type="standard_car" route="-E27_to_E36" depart="379.0" departLane="random" />
    <vehicle id="-E27_to_E36_34" type="standard_car" route="-E27_to_E36" depart="380.0" departLane="random" />
    <vehicle id="-E27_to_E28_35" type="standard_car" route="-E27_to_E28" depart="390.0" departLane="random" />
    <vehicle id="-E36_to_E28_36" type="standard_car" route="-E36_to_E28" depart="394.0" departLane="random" />
    <vehicle id="-E28_to_E25_37" type="standard_car" route="-E28_to_E25" depart="400.0" departLane="random" />
    <vehicle id="E24_to_E36_38" type="standard_car" route="E24_to_E36" depart="403.0" departLane="random" />
    <vehicle id="-E27_to_E36_39" type="standard_car" route="-E27_to_E36" depart="404.0" departLane="random" />
    <vehicle id="-E28_to_E25_40" type="standard_car" route="-E28_to_E25" depart="409.0" departLane="random" />
    <vehicle id="E24_to_E28_41" type="standard_car" route="E24_to_E28" depart="412.0" departLane="random" />
    <vehicle id="-E27_to_E25_42" type="standard_car" route="-E27_to_E25" depart="414.0" departLane="random" />
    <vehicle id="-E28_to_E25_43" type="standard_car" route="-E28_to_E25" depart="427.0" departLane="random" />
    <vehicle id="E24_to_E28_44" type="standard_car" route="E24_to_E28" depart="442.0" departLane="random" />
    <vehicle id="E24_to_E36_45" type="standard_car" route="E24_to_E36" depart="443.0" departLane="random" />
    <vehicle id="-E27_to_E25_46" type="standard_car" route="-E27_to_E25" depart="459.0" departLane="random" />
    <vehicle id="E24_to_E36_47" type="standard_car" route="E24_to_E36" depart="461.0" departLane="random" />
    <vehicle id="-E28_to_E25_48" type="standard_car" route="-E28_to_E25" depart="463.0" departLane="random" />
    <vehicle id="-E36_to_E28_49" type="standard_car" route="-E36_to_E28" depart="469.0" departLane="random" />
    <vehicle id="E24_to_E28_50" type="standard_car" route="E24_to_E28" depart="470.0" departLane="random" />
    <vehicle id="-E27_to_E28_51" type="standard_car" route="-E27_to_E28" depart="472.0" departLane="random" />
    <vehicle id="-E27_to_E36_52" type="standard_car" route="-E27_to_E36" depart="480.0" departLane="random" />
    <vehicle id="-E28_to_E25_53" type="standard_car" route="-E28_to_E25" depart="502.0" departLane="random" />
    <vehicle id="-E28_to_E27_54" type="standard_car" route="-E28_to_E27" depart="507.0" departLane="random" />
    <vehicle id="-E27_to_E28_55" type="standard_car" route="-E27_to_E28" depart="508.0" departLane="random" />
    <vehicle id="-E27_to_E36_56" type="standard_car" route="-E27_to_E36" depart="509.0" departLane="random" />
    <vehicle id="E24_to_E28_57" type="standard_car" route="E24_to_E28" depart="509.0" departLane="random" />
    <vehicle id="-E27_to_E25_58" type="standard_car" route="-E27_to_E25" depart="510.0" departLane="random" />
    <vehicle id="-E36_to_E28_59" type="standard_car" route="-E36_to_E28" depart="512.0" departLane="random" />
    <vehicle id="-E27_to_E36_60" type="standard_car" route="-E27_to_E36" depart="515.0" departLane="random" />
    <vehicle id="-E27_to_E25_61" type="standard_car" route="-E27_to_E25" depart="517.0" departLane="random" />
    <vehicle id="-E28_to_E27_62" type="standard_car" route="-E28_to_E27" depart="518.0" departLane="random" />
    <vehicle id="-E36_to_E27_63" type="standard_car" route="-E36_to_E27" depart="531.0" departLane="random" />
    <vehicle id="E24_to_E36_64" type="standard_car" route="E24_to_E36" depart="533.0" departLane="random" />
    <vehicle id="-E28_to_E25_65" type="standard_car" route="-E28_to_E25" depart="541.0" departLane="random" />
    <vehicle id="E24_to_E28_66" type="standard_car" route="E24_to_E28" depart="548.0" departLane="random" />
    <vehicle id="-E27_to_E25_67" type="standard_car" route="-E27_to_E25" depart="551.0" departLane="random" />
    <vehicle id="-E36_to_E27_68" type="standard_car" route="-E36_to_E27" depart="561.0" departLane="random" />
    <vehicle id="E24_to_E28_69" type="standard_car" route="E24_to_E28" depart="564.0" departLane="random" />
    <vehicle id="E24_to_E36_70" type="standard_car" route="E24_to_E36" depart="569.0" departLane="random" />
    <vehicle id="E24_to_E28_71" type="standard_car" route="E24_to_E28" depart="571.0" departLane="random" />
    <vehicle id="E24_to_E36_72" type="standard_car" route="E24_to_E36" depart="575.0" departLane="random" />
    <vehicle id="-E36_to_E27_73" type="standard_car" route="-E36_to_E27" depart="575.0" departLane="random" />
    <vehicle id="E24_to_E28_74" type="standard_car" route="E24_to_E28" depart="581.0" departLane="random" />
    <vehicle id="E24_to_E28_75" type="standard_car" route="E24_to_E28" depart="582.0" departLane="random" />
    <vehicle id="-E27_to_E36_76" type="standard_car" route="-E27_to_E36" depart="585.0" departLane="random" />
    <vehicle id="E24_to_E28_77" type="standard_car" route="E24_to_E28" depart="588.0" departLane="random" />
    <vehicle id="-E27_to_E36_78" type="standard_car" route="-E27_to_E36" depart="588.0" departLane="random" />
    <vehicle id="-E36_to_E27_79" type="standard_car" route="-E36_to_E27" depart="589.0" departLane="random" />
    <vehicle id="-E28_to_E25_80" type="standard_car" route="-E28_to_E25" depart="595.0" departLane="random" />
    <vehicle id="-E36_to_E27_81" type="standard_car" route="-E36_to_E27" depart="596.0" departLane="random" />
    <vehicle id="-E36_to_E27_82" type="standard_car" route="-E36_to_E27" depart="597.0" departLane="random" />
    <vehicle id="-E36_to_E27_83" type="standard_car" route="-E36_to_E27" depart="601.0" departLane="random" />
    <vehicle id="-E28_to_E25_84" type="standard_car" route="-E28_to_E25" depart="602.0" departLane="random" />
    <vehicle id="-E36_to_E27_85" type="standard_car" route="-E36_to_E27" depart="602.0" departLane="random" />
    <vehicle id="-E27_to_E36_86" type="standard_car" route="-E27_to_E36" depart="602.0" departLane="random" />
    <vehicle id="-E27_to_E36_87" type="standard_car" route="-E27_to_E36" depart="604.0" departLane="random" />
    <vehicle id="-E28_to_E25_88" type="standard_car" route="-E28_to_E25" depart="606.0" departLane="random" />
    <vehicle id="E24_to_E28_89" type="standard_car" route="E24_to_E28" depart="611.0" departLane="random" />
    <vehicle id="-E36_to_E28_90" type="standard_car" route="-E36_to_E28" depart="614.0" departLane="random" />
    <vehicle id="E24_to_E36_91" type="standard_car" route="E24_to_E36" depart="615.0" departLane="random" />
    <vehicle id="E24_to_E28_92" type="standard_car" route="E24_to_E28" depart="619.0" departLane="random" />
    <vehicle id="E24_to_E28_93" type="standard_car" route="E24_to_E28" depart="622.0" departLane="random" />
    <vehicle id="-E28_to_E27_94" type="standard_car" route="-E28_to_E27" depart="622.0" departLane="random" />
    <vehicle id="-E28_to_E27_95" type="standard_car" route="-E28_to_E27" depart="626.0" departLane="random" />
    <vehicle id="E24_to_E36_96" type="standard_car" route="E24_to_E36" depart="627.0" departLane="random" />
    <vehicle id="-E27_to_E36_97" type="standard_car" route="-E27_to_E36" depart="631.0" departLane="random" />
    <vehicle id="-E27_to_E36_98" type="standard_car" route="-E27_to_E36" depart="640.0" departLane="random" />
    <vehicle id="E24_to_E28_99" type="standard_car" route="E24_to_E28" depart="642.0" departLane="random" />
    <vehicle id="-E27_to_E36_100" type="standard_car" route="-E27_to_E36" depart="643.0" departLane="random" />
    <vehicle id="-E27_to_E36_101" type="standard_car" route="-E27_to_E36" depart="647.0" departLane="random" />
    <vehicle id="E24_to_E28_102" type="standard_car" route="E24_to_E28" depart="647.0" departLane="random" />
    <vehicle id="-E36_to_E27_103" type="standard_car" route="-E36_to_E27" depart="652.0" departLane="random" />
    <vehicle id="-E36_to_E27_104" type="standard_car" route="-E36_to_E27" depart="656.0" departLane="random" />
    <vehicle id="-E28_to_E25_105" type="standard_car" route="-E28_to_E25" depart="659.0" departLane="random" />
    <vehicle id="-E36_to_E27_106" type="standard_car" route="-E36_to_E27" depart="663.0" departLane="random" />
    <vehicle id="E24_to_E28_107" type="standard_car" route="E24_to_E28" depart="664.0" departLane="random" />
    <vehicle id="-E28_to_E25_108" type="standard_car" route="-E28_to_E25" depart="666.0" departLane="random" />
    <vehicle id="-E36_to_E27_109" type="standard_car" route="-E36_to_E27" depart="678.0" departLane="random" />
    <vehicle id="-E28_to_E27_110" type="standard_car" route="-E28_to_E27" depart="679.0" departLane="random" />
    <vehicle id="-E28_to_E25_111" type="standard_car" route="-E28_to_E25" depart="680.0" departLane="random" />
    <vehicle id="-E36_to_E27_112" type="standard_car" route="-E36_to_E27" depart="681.0" departLane="random" />
    <vehicle id="-E28_to_E25_113" type="standard_car" route="-E28_to_E25" depart="684.0" departLane="random" />
    <vehicle id="-E36_to_E27_114" type="standard_car" route="-E36_to_E27" depart="686.0" departLane="random" />
    <vehicle id="E24_to_E36_115" type="standard_car" route="E24_to_E36" depart="686.0" departLane="random" />
    <vehicle id="-E27_to_E28_116" type="standard_car" route="-E27_to_E28" depart="687.0" departLane="random" />
    <vehicle id="E24_to_E28_117" type="standard_car" route="E24_to_E28" depart="687.0" departLane="random" />
    <vehicle id="E24_to_E36_118" type="standard_car" route="E24_to_E36" depart="695.0" departLane="random" />
    <vehicle id="-E36_to_E27_119" type="standard_car" route="-E36_to_E27" depart="707.0" departLane="random" />
    <vehicle id="-E28_to_E25_120" type="standard_car" route="-E28_to_E25" depart="710.0" departLane="random" />
    <vehicle id="-E27_to_E36_121" type="standard_car" route="-E27_to_E36" depart="710.0" departLane="random" />
    <vehicle id="-E28_to_E27_122" type="standard_car" route="-E28_to_E27" depart="713.0" departLane="random" />
    <vehicle id="-E36_to_E27_123" type="standard_car" route="-E36_to_E27" depart="715.0" departLane="random" />
    <vehicle id="E24_to_E28_124" type="standard_car" route="E24_to_E28" depart="715.0" departLane="random" />
    <vehicle id="-E27_to_E25_125" type="standard_car" route="-E27_to_E25" depart="716.0" departLane="random" />
    <vehicle id="-E36_to_E27_126" type="standard_car" route="-E36_to_E27" depart="717.0" departLane="random" />
    <vehicle id="E24_to_E36_127" type="standard_car" route="E24_to_E36" depart="717.0" departLane="random" />
    <vehicle id="-E27_to_E36_128" type="standard_car" route="-E27_to_E36" depart="718.0" departLane="random" />
    <vehicle id="-E36_to_E27_129" type="standard_car" route="-E36_to_E27" depart="725.0" departLane="random" />
    <vehicle id="-E27_to_E36_130" type="standard_car" route="-E27_to_E36" depart="729.0" departLane="random" />
    <vehicle id="-E36_to_E27_131" type="standard_car" route="-E36_to_E27" depart="731.0" departLane="random" />
    <vehicle id="-E27_to_E36_132" type="standard_car" route="-E27_to_E36" depart="731.0" departLane="random" />
    <vehicle id="-E36_to_E27_133" type="standard_car" route="-E36_to_E27" depart="734.0" departLane="random" />
    <vehicle id="E24_to_E36_134" type="standard_car" route="E24_to_E36" depart="735.0" departLane="random" />
    <vehicle id="-E36_to_E27_135" type="standard_car" route="-E36_to_E27" depart="736.0" departLane="random" />
    <vehicle id="-E27_to_E36_136" type="standard_car" route="-E27_to_E36" depart="737.0" departLane="random" />
    <vehicle id="-E36_to_E27_137" type="standard_car" route="-E36_to_E27" depart="738.0" departLane="random" />
    <vehicle id="E24_to_E28_138" type="standard_car" route="E24_to_E28" depart="746.0" departLane="random" />
    <vehicle id="-E36_to_E28_139" type="standard_car" route="-E36_to_E28" depart="747.0" departLane="random" />
    <vehicle id="-E28_to_E25_140" type="standard_car" route="-E28_to_E25" depart="748.0" departLane="random" />
    <vehicle id="-E28_to_E25_141" type="standard_car" route="-E28_to_E25" depart="750.0" departLane="random" />
    <vehicle id="E24_to_E28_142" type="standard_car" route="E24_to_E28" depart="752.0" departLane="random" />
    <vehicle id="-E27_to_E36_143" type="standard_car" route="-E27_to_E36" depart="754.0" departLane="random" />
    <vehicle id="-E36_to_E28_144" type="standard_car" route="-E36_to_E28" depart="755.0" departLane="random" />
    <vehicle id="-E28_to_E25_145" type="standard_car" route="-E28_to_E25" depart="757.0" departLane="random" />
    <vehicle id="-E36_to_E27_146" type="standard_car" route="-E36_to_E27" depart="757.0" departLane="random" />
    <vehicle id="-E28_to_E27_147" type="standard_car" route="-E28_to_E27" depart="757.0" departLane="random" />
    <vehicle id="-E36_to_E27_148" type="standard_car" route="-E36_to_E27" depart="758.0" departLane="random" />
    <vehicle id="-E28_to_E27_149" type="standard_car" route="-E28_to_E27" depart="760.0" departLane="random" />
    <vehicle id="-E27_to_E36_150" type="standard_car" route="-E27_to_E36" depart="763.0" departLane="random" />
    <vehicle id="-E28_to_E25_151" type="standard_car" route="-E28_to_E25" depart="765.0" departLane="random" />
    <vehicle id="-E27_to_E25_152" type="standard_car" route="-E27_to_E25" depart="767.0" departLane="random" />
    <vehicle id="-E27_to_E36_153" type="standard_car" route="-E27_to_E36" depart="767.0" departLane="random" />
    <vehicle id="-E36_to_E28_154" type="standard_car" route="-E36_to_E28" depart="771.0" departLane="random" />
    <vehicle id="-E27_to_E36_155" type="standard_car" route="-E27_to_E36" depart="772.0" departLane="random" />
    <vehicle id="-E28_to_E25_156" type="standard_car" route="-E28_to_E25" depart="779.0" departLane="random" />
    <vehicle id="-E27_to_E25_157" type="standard_car" route="-E27_to_E25" depart="787.0" departLane="random" />
    <vehicle id="-E27_to_E36_158" type="standard_car" route="-E27_to_E36" depart="787.0" departLane="random" />
    <vehicle id="E24_to_E36_159" type="standard_car" route="E24_to_E36" depart="791.0" departLane="random" />
    <vehicle id="E24_to_E36_160" type="standard_car" route="E24_to_E36" depart="791.0" departLane="random" />
    <vehicle id="-E28_to_E25_161" type="standard_car" route="-E28_to_E25" depart="791.0" departLane="random" />
    <vehicle id="-E27_to_E25_162" type="standard_car" route="-E27_to_E25" depart="791.0" departLane="random" />
    <vehicle id="-E27_to_E25_163" type="standard_car" route="-E27_to_E25" depart="803.0" departLane="random" />
    <vehicle id="-E28_to_E27_164" type="standard_car" route="-E28_to_E27" depart="815.0" departLane="random" />
    <vehicle id="-E28_to_E25_165" type="standard_car" route="-E28_to_E25" depart="819.0" departLane="random" />
    <vehicle id="-E27_to_E28_166" type="standard_car" route="-E27_to_E28" depart="820.0" departLane="random" />
    <vehicle id="-E28_to_E25_167" type="standard_car" route="-E28_to_E25" depart="826.0" departLane="random" />
    <vehicle id="E24_to_E28_168" type="standard_car" route="E24_to_E28" depart="826.0" departLane="random" />
    <vehicle id="-E28_to_E25_169" type="standard_car" route="-E28_to_E25" depart="828.0" departLane="random" />
    <vehicle id="-E36_to_E27_170" type="standard_car" route="-E36_to_E27" depart="829.0" departLane="random" />
    <vehicle id="E24_to_E28_171" type="standard_car" route="E24_to_E28" depart="832.0" departLane="random" />
    <vehicle id="E24_to_E28_172" type="standard_car" route="E24_to_E28" depart="834.0" departLane="random" />
    <vehicle id="-E36_to_E27_173" type="standard_car" route="-E36_to_E27" depart="834.0" departLane="random" />
    <vehicle id="-E28_to_E27_174" type="standard_car" route="-E28_to_E27" depart="839.0" departLane="random" />
    <vehicle id="-E36_to_E28_175" type="standard_car" route="-E36_to_E28" depart="846.0" departLane="random" />
    <vehicle id="-E28_to_E25_176" type="standard_car" route="-E28_to_E25" depart="848.0" departLane="random" />
    <vehicle id="-E36_to_E27_177" type="standard_car" route="-E36_to_E27" depart="849.0" departLane="random" />
    <vehicle id="-E27_to_E36_178" type="standard_car" route="-E27_to_E36" depart="852.0" departLane="random" />
    <vehicle id="-E36_to_E27_179" type="standard_car" route="-E36_to_E27" depart="853.0" departLane="random" />
    <vehicle id="E24_to_E36_180" type="standard_car" route="E24_to_E36" depart="859.0" departLane="random" />
    <vehicle id="E24_to_E28_181" type="standard_car" route="E24_to_E28" depart="861.0" departLane="random" />
    <vehicle id="-E27_to_E36_182" type="standard_car" route="-E27_to_E36" depart="862.0" departLane="random" />
    <vehicle id="-E27_to_E36_183" type="standard_car" route="-E27_to_E36" depart="862.0" departLane="random" />
    <vehicle id="-E27_to_E36_184" type="standard_car" route="-E27_to_E36" depart="863.0" departLane="random" />
    <vehicle id="-E28_to_E27_185" type="standard_car" route="-E28_to_E27" depart="863.0" departLane="random" />
    <vehicle id="E24_to_E36_186" type="standard_car" route="E24_to_E36" depart="865.0" departLane="random" />
    <vehicle id="-E36_to_E28_187" type="standard_car" route="-E36_to_E28" depart="869.0" departLane="random" />
    <vehicle id="-E36_to_E27_188" type="standard_car" route="-E36_to_E27" depart="878.0" departLane="random" />
    <vehicle id="-E28_to_E25_189" type="standard_car" route="-E28_to_E25" depart="878.0" departLane="random" />
    <vehicle id="-E36_to_E28_190" type="standard_car" route="-E36_to_E28" depart="879.0" departLane="random" />
    <vehicle id="-E27_to_E25_191" type="standard_car" route="-E27_to_E25" depart="879.0" departLane="random" />
    <vehicle id="-E27_to_E25_192" type="standard_car" route="-E27_to_E25" depart="889.0" departLane="random" />
    <vehicle id="E24_to_E28_193" type="standard_car" route="E24_to_E28" depart="889.0" departLane="random" />
    <vehicle id="-E27_to_E25_194" type="standard_car" route="-E27_to_E25" depart="891.0" departLane="random" />
    <vehicle id="E24_to_E28_195" type="standard_car" route="E24_to_E28" depart="893.0" departLane="random" />
    <vehicle id="-E27_to_E25_196" type="standard_car" route="-E27_to_E25" depart="894.0" departLane="random" />
    <vehicle id="E24_to_E28_197" type="standard_car" route="E24_to_E28" depart="901.0" departLane="random" />
    <vehicle id="-E36_to_E27_198" type="standard_car" route="-E36_to_E27" depart="902.0" departLane="random" />
    <vehicle id="-E28_to_E25_199" type="standard_car" route="-E28_to_E25" depart="902.0" departLane="random" />
    <vehicle id="E24_to_E36_200" type="standard_car" route="E24_to_E36" depart="902.0" departLane="random" />
    <vehicle id="-E28_to_E27_201" type="standard_car" route="-E28_to_E27" depart="904.0" departLane="random" />
    <vehicle id="-E36_to_E27_202" type="standard_car" route="-E36_to_E27" depart="920.0" departLane="random" />
    <vehicle id="-E27_to_E36_203" type="standard_car" route="-E27_to_E36" depart="922.0" departLane="random" />
    <vehicle id="E24_to_E36_204" type="standard_car" route="E24_to_E36" depart="922.0" departLane="random" />
    <vehicle id="-E27_to_E36_205" type="standard_car" route="-E27_to_E36" depart="924.0" departLane="random" />
    <vehicle id="-E36_to_E27_206" type="standard_car" route="-E36_to_E27" depart="924.0" departLane="random" />
    <vehicle id="-E27_to_E25_207" type="standard_car" route="-E27_to_E25" depart="927.0" departLane="random" />
    <vehicle id="-E36_to_E27_208" type="standard_car" route="-E36_to_E27" depart="931.0" departLane="random" />
    <vehicle id="-E27_to_E36_209" type="standard_car" route="-E27_to_E36" depart="931.0" departLane="random" />
    <vehicle id="-E27_to_E36_210" type="standard_car" route="-E27_to_E36" depart="932.0" departLane="random" />
    <vehicle id="-E27_to_E36_211" type="standard_car" route="-E27_to_E36" depart="932.0" departLane="random" />
    <vehicle id="E24_to_E36_212" type="standard_car" route="E24_to_E36" depart="933.0" departLane="random" />
    <vehicle id="E24_to_E28_213" type="standard_car" route="E24_to_E28" depart="935.0" departLane="random" />
    <vehicle id="E24_to_E36_214" type="standard_car" route="E24_to_E36" depart="936.0" departLane="random" />
    <vehicle id="-E36_to_E27_215" type="standard_car" route="-E36_to_E27" depart="936.0" departLane="random" />
    <vehicle id="-E27_to_E25_216" type="standard_car" route="-E27_to_E25" depart="937.0" departLane="random" />
    <vehicle id="-E27_to_E36_217" type="standard_car" route="-E27_to_E36" depart="941.0" departLane="random" />
    <vehicle id="-E27_to_E28_218" type="standard_car" route="-E27_to_E28" depart="942.0" departLane="random" />
    <vehicle id="-E27_to_E25_219" type="standard_car" route="-E27_to_E25" depart="948.0" departLane="random" />
    <vehicle id="-E27_to_E36_220" type="standard_car" route="-E27_to_E36" depart="951.0" departLane="random" />
    <vehicle id="-E28_to_E25_221" type="standard_car" route="-E28_to_E25" depart="954.0" departLane="random" />
    <vehicle id="-E27_to_E36_222" type="standard_car" route="-E27_to_E36" depart="957.0" departLane="random" />
    <vehicle id="-E28_to_E25_223" type="standard_car" route="-E28_to_E25" depart="962.0" departLane="random" />
    <vehicle id="-E36_to_E27_224" type="standard_car" route="-E36_to_E27" depart="963.0" departLane="random" />
    <vehicle id="-E27_to_E36_225" type="standard_car" route="-E27_to_E36" depart="964.0" departLane="random" />
    <vehicle id="-E27_to_E28_226" type="standard_car" route="-E27_to_E28" depart="967.0" departLane="random" />
    <vehicle id="-E27_to_E25_227" type="standard_car" route="-E27_to_E25" depart="970.0" departLane="random" />
    <vehicle id="-E27_to_E28_228" type="standard_car" route="-E27_to_E28" depart="971.0" departLane="random" />
    <vehicle id="-E27_to_E25_229" type="standard_car" route="-E27_to_E25" depart="971.0" departLane="random" />
    <vehicle id="E24_to_E28_230" type="standard_car" route="E24_to_E28" depart="971.0" departLane="random" />
    <vehicle id="-E28_to_E25_231" type="standard_car" route="-E28_to_E25" depart="971.0" departLane="random" />
    <vehicle id="-E36_to_E28_232" type="standard_car" route="-E36_to_E28" depart="975.0" departLane="random" />
    <vehicle id="-E36_to_E28_233" type="standard_car" route="-E36_to_E28" depart="978.0" departLane="random" />
    <vehicle id="-E36_to_E27_234" type="standard_car" route="-E36_to_E27" depart="979.0" departLane="random" />
    <vehicle id="-E36_to_E27_235" type="standard_car" route="-E36_to_E27" depart="983.0" departLane="random" />
    <vehicle id="-E28_to_E25_236" type="standard_car" route="-E28_to_E25" depart="985.0" departLane="random" />
    <vehicle id="-E27_to_E36_237" type="standard_car" route="-E27_to_E36" depart="987.0" departLane="random" />
    <vehicle id="-E27_to_E25_238" type="standard_car" route="-E27_to_E25" depart="992.0" departLane="random" />
    <vehicle id="-E36_to_E27_239" type="standard_car" route="-E36_to_E27" depart="992.0" departLane="random" />
    <vehicle id="-E27_to_E36_240" type="standard_car" route="-E27_to_E36" depart="993.0" departLane="random" />
    <vehicle id="-E28_to_E27_241" type="standard_car" route="-E28_to_E27" depart="996.0" departLane="random" />
    <vehicle id="E24_to_E36_242" type="standard_car" route="E24_to_E36" depart="997.0" departLane="random" />
    <vehicle id="E24_to_E36_243" type="standard_car" route="E24_to_E36" depart="998.0" departLane="random" />
    <vehicle id="E24_to_E36_244" type="standard_car" route="E24_to_E36" depart="998.0" departLane="random" />
    <vehicle id="-E36_to_E28_245" type="standard_car" route="-E36_to_E28" depart="1005.0" departLane="random" />
    <vehicle id="E24_to_E28_246" type="standard_car" route="E24_to_E28" depart="1008.0" departLane="random" />
    <vehicle id="-E27_to_E36_247" type="standard_car" route="-E27_to_E36" depart="1010.0" departLane="random" />
    <vehicle id="-E36_to_E27_248" type="standard_car" route="-E36_to_E27" depart="1015.0" departLane="random" />
    <vehicle id="-E27_to_E36_249" type="standard_car" route="-E27_to_E36" depart="1016.0" departLane="random" />
    <vehicle id="-E27_to_E25_250" type="standard_car" route="-E27_to_E25" depart="1016.0" departLane="random" />
    <vehicle id="-E36_to_E27_251" type="standard_car" route="-E36_to_E27" depart="1017.0" departLane="random" />
    <vehicle id="-E28_to_E25_252" type="standard_car" route="-E28_to_E25" depart="1017.0" departLane="random" />
    <vehicle id="-E28_to_E25_253" type="standard_car" route="-E28_to_E25" depart="1017.0" departLane="random" />
    <vehicle id="-E27_to_E25_254" type="standard_car" route="-E27_to_E25" depart="1025.0" departLane="random" />
    <vehicle id="-E36_to_E28_255" type="standard_car" route="-E36_to_E28" depart="1025.0" departLane="random" />
    <vehicle id="-E27_to_E36_256" type="standard_car" route="-E27_to_E36" depart="1026.0" departLane="random" />
    <vehicle id="-E27_to_E36_257" type="standard_car" route="-E27_to_E36" depart="1027.0" departLane="random" />
    <vehicle id="-E36_to_E28_258" type="standard_car" route="-E36_to_E28" depart="1028.0" departLane="random" />
    <vehicle id="-E28_to_E25_259" type="standard_car" route="-E28_to_E25" depart="1034.0" departLane="random" />
    <vehicle id="-E28_to_E27_260" type="standard_car" route="-E28_to_E27" depart="1040.0" departLane="random" />
    <vehicle id="-E27_to_E36_261" type="standard_car" route="-E27_to_E36" depart="1044.0" departLane="random" />
    <vehicle id="-E36_to_E28_262" type="standard_car" route="-E36_to_E28" depart="1044.0" departLane="random" />
    <vehicle id="-E28_to_E27_263" type="standard_car" route="-E28_to_E27" depart="1044.0" departLane="random" />