<?xml version="1.0" encoding="UTF-8"?>

<!-- generated on 2022-05-31 22:21:32 by Eclipse SUMO GUI Version 1.13.0
-->

<configuration xmlns:xsi="http://www.w3.org/2001/XMLSchema-instance" xsi:noNamespaceSchemaLocation="http://sumo.dlr.de/xsd/sumoConfiguration.xsd">

    <input>
        <net-file value="Kalaw.net.xml"/>
        <route-files value="Kalaw.rou.xml"/>
    </input>

</configuration>
