<routes>
    <vType accel="0.8" id="standard_car" decel="4.5" length="5.0" minGap="2.5" maxSpeed="16.67" sigma="0.5" />
    
    <route id="-E27_to_E28" edges="-E27 E28" />
    <route id="-E27_to_E36" edges="-E27 E36" />
    <route id="-E27_to_E25" edges="-E27 E25" />
    <route id="-E28_to_E25" edges="-E28 E25" />
    <route id="-E28_to_E27" edges="-E28 E27" />
    <route id="-E36_to_E25" edges="-E36 E25" />
    <route id="-E36_to_E27" edges="-E36 E27" />
    <route id="-E36_to_E28" edges="-E36 E28" />
    <route id="E24_to_E28" edges="E24 E28" />
    <route id="E24_to_E36" edges="E24 E36" />
    <vehicle id="-E36_to_E25_0" type="standard_car" route="-E36_to_E25" depart="9.0" departLane="random" />
    <vehicles id="-E36_to_E27_1" type="standard_car" route="-E36_to_E27" depart="66.0" departLane="random" />
    <vehicles id="-E27_to_E36_2" type="standard_car" route="-E27_to_E36" depart="85.0" departLane="random" />
    <vehicle id="-E27_to_E28_3" type="standard_car" route="-E27_to_E28" depart="94.0" departLane="random" />
    <vehicles id="-E36_to_E27_4" type="standard_car" route="-E36_to_E27" depart="110.0" departLane="random" />
    <vehicle id="-E36_to_E25_5" type="standard_car" route="-E36_to_E25" depart="116.0" departLane="random" />
    <vehicles id="E24_to_E28_6" type="standard_car" route="E24_to_E28" depart="122.0" departLane="random" />
    <vehicle id="-E28_to_E27_7" type="standard_car" route="-E28_to_E27" depart="123.0" departLane="random" />
    <vehicle id="E24_to_E36_8" type="standard_car" route="E24_to_E36" depart="126.0" departLane="random" />
    <vehicle id="-E36_to_E28_9" type="standard_car" route="-E36_to_E28" depart="127.0" departLane="random" />
    <vehicle id="-E36_to_E28_10" type="standard_car" route="-E36_to_E28" depart="132.0" departLane="random" />
    <vehicle id="-E27_to_E28_11" type="standard_car" route="-E27_to_E28" depart="147.0" departLane="random" />
    <vehicle id="-E28_to_E27_12" type="standard_car" route="-E28_to_E27" depart="155.0" departLane="random" />
    <vehicles id="-E28_to_E25_13" type="standard_car" route="-E28_to_E25" depart="156.0" departLane="random" />
    <vehicles id="-E27_to_E36_14" type="standard_car" route="-E27_to_E36" depart="157.0" departLane="random" />
    <vehicle id="-E27_to_E25_15" type="standard_car" route="-E27_to_E25" depart="165.0" departLane="random" />
    <vehicle id="-E27_to_E28_16" type="standard_car" route="-E27_to_E28" depart="174.0" departLane="random" />
    <vehicles id="-E36_to_E27_17" type="standard_car" route="-E36_to_E27" depart="176.0" departLane="random" />
    <vehicle id="-E27_to_E25_18" type="standard_car" route="-E27_to_E25" depart="183.0" departLane="random" />
    <vehicles id="-E28_to_E25_19" type="standard_car" route="-E28_to_E25" depart="185.0" departLane="random" />
    <vehicle id="-E27_to_E28_20" type="standard_car" route="-E27_to_E28" depart="188.0" departLane="random" />
    <vehicles id="E24_to_E28_21" type="standard_car" route="E24_to_E28" depart="193.0" departLane="random" />
    <vehicles id="E24_to_E28_22" type="standard_car" route="E24_to_E28" depart="200.0" departLane="random" />
    <vehicle id="E24_to_E36_23" type="standard_car" route="E24_to_E36" depart="203.0" departLane="random" />
    <vehicles id="E24_to_E28_24" type="standard_car" route="E24_to_E28" depart="207.0" departLane="random" />
    <vehicle id="-E36_to_E25_25" type="standard_car" route="-E36_to_E25" depart="208.0" departLane="random" />
    <vehicles id="-E36_to_E27_26" type="standard_car" route="-E36_to_E27" depart="218.0" departLane="random" />
    <vehicles id="-E36_to_E27_27" type="standard_car" route="-E36_to_E27" depart="218.0" departLane="random" />
    <vehicle id="-E27_to_E28_28" type="standard_car" route="-E27_to_E28" depart="219.0" departLane="random" />
    <vehicle id="-E28_to_E27_29" type="standard_car" route="-E28_to_E27" depart="222.0" departLane="random" />
    <vehicles id="-E36_to_E27_30" type="standard_car" route="-E36_to_E27" depart="223.0" departLane="random" />
    <vehicles id="-E27_to_E36_31" type="standard_car" route="-E27_to_E36" depart="229.0" departLane="random" />
    <vehicles id="-E36_to_E27_32" type="standard_car" route="-E36_to_E27" depart="229.0" departLane="random" />
    <vehicle id="-E27_to_E28_33" type="standard_car" route="-E27_to_E28" depart="231.0" departLane="random" />
    <vehicles id="E24_to_E28_34" type="standard_car" route="E24_to_E28" depart="231.0" departLane="random" />
    <vehicles id="-E27_to_E36_35" type="standard_car" route="-E27_to_E36" depart="231.0" departLane="random" />
    <vehicles id="-E27_to_E36_36" type="standard_car" route="-E27_to_E36" depart="236.0" departLane="random" />
    <vehicles id="-E27_to_E36_37" type="standard_car" route="-E27_to_E36" depart="238.0" departLane="random" />
    <vehicle id="-E27_to_E28_38" type="standard_car" route="-E27_to_E28" depart="239.0" departLane="random" />
    <vehicles id="E24_to_E28_39" type="standard_car" route="E24_to_E28" depart="241.0" departLane="random" />
    <vehicles id="-E27_to_E36_40" type="standard_car" route="-E27_to_E36" depart="243.0" departLane="random" />
    <vehicles id="E24_to_E28_41" type="standard_car" route="E24_to_E28" depart="248.0" departLane="random" />
    <vehicles id="E24_to_E28_42" type="standard_car" route="E24_to_E28" depart="248.0" departLane="random" />
    <vehicles id="-E36_to_E27_43" type="standard_car" route="-E36_to_E27" depart="252.0" departLane="random" />
    <vehicles id="-E28_to_E25_44" type="standard_car" route="-E28_to_E25" depart="259.0" departLane="random" />
    <vehicle id="-E36_to_E25_45" type="standard_car" route="-E36_to_E25" depart="269.0" departLane="random" />
    <vehicle id="-E27_to_E25_46" type="standard_car" route="-E27_to_E25" depart="277.0" departLane="random" />
    <vehicles id="-E36_to_E27_47" type="standard_car" route="-E36_to_E27" depart="280.0" departLane="random" />
    <vehicle id="E24_to_E36_48" type="standard_car" route="E24_to_E36" depart="282.0" departLane="random" />
    <vehicle id="-E27_to_E28_49" type="standard_car" route="-E27_to_E28" depart="284.0" departLane="random" />
    <vehicle id="-E28_to_E27_50" type="standard_car" route="-E28_to_E27" depart="288.0" departLane="random" />
    <vehicles id="-E28_to_E25_51" type="standard_car" route="-E28_to_E25" depart="292.0" departLane="random" />
    <vehicles id="E24_to_E28_52" type="standard_car" route="E24_to_E28" depart="292.0" departLane="random" />
    <vehicle id="-E27_to_E28_53" type="standard_car" route="-E27_to_E28" depart="300.0" departLane="random" />
    <vehicles id="-E27_to_E36_54" type="standard_car" route="-E27_to_E36" depart="301.0" departLane="random" />
    <vehicle id="-E36_to_E25_55" type="standard_car" route="-E36_to_E25" depart="303.0" departLane="random" />
    <vehicles id="-E36_to_E27_56" type="standard_car" route="-E36_to_E27" depart="306.0" departLane="random" />
    <vehicle id="-E36_to_E28_57" type="standard_car" route="-E36_to_E28" depart="308.0" departLane="random" />
    <vehicles id="-E28_to_E25_58" type="standard_car" route="-E28_to_E25" depart="314.0" departLane="random" />
    <vehicles id="-E28_to_E25_59" type="standard_car" route="-E28_to_E25" depart="317.0" departLane="random" />
    <vehicles id="-E28_to_E25_60" type="standard_car" route="-E28_to_E25" depart="321.0" departLane="random" />
    <vehicles id="-E27_to_E36_61" type="standard_car" route="-E27_to_E36" depart="323.0" departLane="random" />
    <vehicle id="-E28_to_E27_62" type="standard_car" route="-E28_to_E27" depart="323.0" departLane="random" />
    <vehicles id="-E28_to_E25_63" type="standard_car" route="-E28_to_E25" depart="323.0" departLane="random" />
    <vehicle id="-E27_to_E28_64" type="standard_car" route="-E27_to_E28" depart="324.0" departLane="random" />
    <vehicles id="E24_to_E28_65" type="standard_car" route="E24_to_E28" depart="329.0" departLane="random" />
    <vehicles id="-E36_to_E27_66" type="standard_car" route="-E36_to_E27" depart="331.0" departLane="random" />
    <vehicle id="-E27_to_E25_67" type="standard_car" route="-E27_to_E25" depart="336.0" departLane="random" />
    <vehicles id="-E27_to_E36_68" type="standard_car" route="-E27_to_E36" depart="338.0" departLane="random" />
    <vehicles id="E24_to_E28_69" type="standard_car" route="E24_to_E28" depart="343.0" departLane="random" />
    <vehicles id="-E28_to_E25_70" type="standard_car" route="-E28_to_E25" depart="343.0" departLane="random" />
    <vehicle id="-E36_to_E28_71" type="standard_car" route="-E36_to_E28" depart="344.0" departLane="random" />
    <vehicles id="-E27_to_E36_72" type="standard_car" route="-E27_to_E36" depart="347.0" departLane="random" />
    <vehicle id="-E27_to_E25_73" type="standard_car" route="-E27_to_E25" depart="348.0" departLane="random" />
    <vehicles id="E24_to_E28_74" type="standard_car" route="E24_to_E28" depart="350.0" departLane="random" />
    <vehicle id="-E36_to_E28_75" type="standard_car" route="-E36_to_E28" depart="350.0" departLane="random" />
    <vehicles id="-E27_to_E36_76" type="standard_car" route="-E27_to_E36" depart="352.0" departLane="random" />
    <vehicles id="-E27_to_E36_77" type="standard_car" route="-E27_to_E36" depart="354.0" departLane="random" />
    <vehicle id="-E27_to_E28_78" type="standard_car" route="-E27_to_E28" depart="356.0" departLane="random" />
    <vehicles id="-E28_to_E25_79" type="standard_car" route="-E28_to_E25" depart="357.0" departLane="random" />
    <vehicles id="-E28_to_E25_80" type="standard_car" route="-E28_to_E25" depart="360.0" departLane="random" />
    <vehicles id="-E36_to_E27_81" type="standard_car" route="-E36_to_E27" depart="362.0" departLane="random" />
    <vehicles id="-E27_to_E36_82" type="standard_car" route="-E27_to_E36" depart="365.0" departLane="random" />
    <vehicles id="-E28_to_E25_83" type="standard_car" route="-E28_to_E25" depart="366.0" departLane="random" />
    <vehicle id="-E27_to_E28_84" type="standard_car" route="-E27_to_E28" depart="369.0" departLane="random" />
    <vehicle id="-E27_to_E28_85" type="standard_car" route="-E27_to_E28" depart="372.0" departLane="random" />
    <vehicles id="E24_to_E28_86" type="standard_car" route="E24_to_E28" depart="377.0" departLane="random" />
    <vehicles id="-E36_to_E27_87" type="standard_car" route="-E36_to_E27" depart="380.0" departLane="random" />
    <vehicle id="-E36_to_E25_88" type="standard_car" route="-E36_to_E25" depart="385.0" departLane="random" />
    <vehicles id="-E28_to_E25_89" type="standard_car" route="-E28_to_E25" depart="389.0" departLane="random" />
    <vehicles id="-E27_to_E36_90" type="standard_car" route="-E27_to_E36" depart="389.0" departLane="random" />
    <vehicles id="-E36_to_E27_91" type="standard_car" route="-E36_to_E27" depart="389.0" departLane="random" />
    <vehicles id="-E28_to_E25_92" type="standard_car" route="-E28_to_E25" depart="389.0" departLane="random" />
    <vehicles id="-E27_to_E36_93" type="standard_car" route="-E27_to_E36" depart="391.0" departLane="random" />
    <vehicles id="-E27_to_E36_94" type="standard_car" route="-E27_to_E36" depart="392.0" departLane="random" />
    <vehicle id="-E28_to_E27_95" type="standard_car" route="-E28_to_E27" depart="396.0" departLane="random" />
    <vehicles id="-E27_to_E36_96" type="standard_car" route="-E27_to_E36" depart="399.0" departLane="random" />
    <vehicle id="-E28_to_E27_97" type="standard_car" route="-E28_to_E27" depart="404.0" departLane="random" />
    <vehicles id="-E36_to_E27_98" type="standard_car" route="-E36_to_E27" depart="406.0" departLane="random" />
    <vehicle id="-E36_to_E25_99" type="standard_car" route="-E36_to_E25" depart="408.0" departLane="random" />
    <vehicle id="-E28_to_E27_100" type="standard_car" route="-E28_to_E27" depart="408.0" departLane="random" />
    <vehicle id="E24_to_E36_101" type="standard_car" route="E24_to_E36" depart="412.0" departLane="random" />
    <vehicle id="-E27_to_E28_102" type="standard_car" route="-E27_to_E28" depart="415.0" departLane="random" />
    <vehicles id="-E28_to_E25_103" type="standard_car" route="-E28_to_E25" depart="416.0" departLane="random" />
    <vehicles id="E24_to_E28_104" type="standard_car" route="E24_to_E28" depart="416.0" departLane="random" />
    <vehicle id="-E27_to_E28_105" type="standard_car" route="-E27_to_E28" depart="417.0" departLane="random" />
    <vehicle id="E24_to_E36_106" type="standard_car" route="E24_to_E36" depart="418.0" departLane="random" />
    <vehicles id="-E27_to_E36_107" type="standard_car" route="-E27_to_E36" depart="419.0" departLane="random" />
    <vehicle id="E24_to_E36_108" type="standard_car" route="E24_to_E36" depart="422.0" departLane="random" />
    <vehicles id="-E27_to_E36_109" type="standard_car" route="-E27_to_E36" depart="427.0" departLane="random" />
    <vehicles id="-E27_to_E36_110" type="standard_car" route="-E27_to_E36" depart="431.0" departLane="random" />
    <vehicles id="-E28_to_E25_111" type="standard_car" route="-E28_to_E25" depart="434.0" departLane="random" />
    <vehicle id="-E27_to_E25_112" type="standard_car" route="-E27_to_E25" depart="436.0" departLane="random" />
    <vehicle id="-E36_to_E28_113" type="standard_car" route="-E36_to_E28" depart="436.0" departLane="random" />
    <vehicles id="-E36_to_E27_114" type="standard_car" route="-E36_to_E27" depart="443.0" departLane="random" />
    <vehicles id="-E27_to_E36_115" type="standard_car" route="-E27_to_E36" depart="444.0" departLane="random" />
    <vehicle id="-E28_to_E27_116" type="standard_car" route="-E28_to_E27" depart="446.0" departLane="random" />
    <vehicle id="-E27_to_E25_117" type="standard_car" route="-E27_to_E25" depart="447.0" departLane="random" />
    <vehicle id="-E27_to_E25_118" type="standard_car" route="-E27_to_E25" depart="450.0" departLane="random" />
    <vehicles id="-E36_to_E27_119" type="standard_car" route="-E36_to_E27" depart="450.0" departLane="random" />
    <vehicles id="-E28_to_E25_120" type="standard_car" route="-E28_to_E25" depart="454.0" departLane="random" />
    <vehicles id="E24_to_E28_121" type="standard_car" route="E24_to_E28" depart="455.0" departLane="random" />
    <vehicles id="-E36_to_E27_122" type="standard_car" route="-E36_to_E27" depart="458.0" departLane="random" />
    <vehicles id="E24_to_E28_123" type="standard_car" route="E24_to_E28" depart="459.0" departLane="random" />
    <vehicle id="-E36_to_E25_124" type="standard_car" route="-E36_to_E25" depart="460.0" departLane="random" />
    <vehicles id="-E27_to_E36_125" type="standard_car" route="-E27_to_E36" depart="462.0" departLane="random" />
    <vehicles id="-E27_to_E36_126" type="standard_car" route="-E27_to_E36" depart="464.0" departLane="random" />
    <vehicles id="-E27_to_E36_127" type="standard_car" route="-E27_to_E36" depart="464.0" departLane="random" />
    <vehicle id="-E36_to_E28_128" type="standard_car" route="-E36_to_E28" depart="464.0" departLane="random" />
    <vehicles id="-E28_to_E25_129" type="standard_car" route="-E28_to_E25" depart="465.0" departLane="random" />
    <vehicles id="E24_to_E28_130" type="standard_car" route="E24_to_E28" depart="467.0" departLane="random" />
    <vehicle id="-E27_to_E25_131" type="standard_car" route="-E27_to_E25" depart="469.0" departLane="random" />
    <vehicle id="-E27_to_E25_132" type="standard_car" route="-E27_to_E25" depart="469.0" departLane="random" />
    <vehicles id="-E28_to_E25_133" type="standard_car" route="-E28_to_E25" depart="470.0" departLane="random" />
    <vehicle id="-E36_to_E28_134" type="standard_car" route="-E36_to_E28" depart="470.0" departLane="random" />
    <vehicles id="-E27_to_E36_135" type="standard_car" route="-E27_to_E36" depart="471.0" departLane="random" />
    <vehicles id="E24_to_E28_136" type="standard_car" route="E24_to_E28" depart="471.0" departLane="random" />
    <vehicles id="-E28_to_E25_137" type="standard_car" route="-E28_to_E25" depart="471.0" departLane="random" />
    <vehicle id="-E36_to_E28_138" type="standard_car" route="-E36_to_E28" depart="479.0" departLane="random" />
    <vehicle id="-E36_to_E28_139" type="standard_car" route="-E36_to_E28" depart="479.0" departLane="random" />
    <vehicle id="E24_to_E36_140" type="standard_car" route="E24_to_E36" depart="480.0" departLane="random" />
    <vehicles id="-E36_to_E27_141" type="standard_car" route="-E36_to_E27" depart="483.0" departLane="random" />
    <vehicle id="-E36_to_E28_142" type="standard_car" route="-E36_to_E28" depart="483.0" departLane="random" />
    <vehicles id="-E27_to_E36_143" type="standard_car" route="-E27_to_E36" depart="483.0" departLane="random" />
    <vehicles id="E24_to_E28_144" type="standard_car" route="E24_to_E28" depart="487.0" departLane="random" />
    <vehicles id="-E28_to_E25_145" type="standard_car" route="-E28_to_E25" depart="492.0" departLane="random" />
    <vehicles id="-E28_to_E25_146" type="standard_car" route="-E28_to_E25" depart="495.0" departLane="random" />
    <vehicles id="-E36_to_E27_147" type="standard_car" route="-E36_to_E27" depart="495.0" departLane="random" />
    <vehicle id="E24_to_E36_148" type="standard_car" route="E24_to_E36" depart="496.0" departLane="random" />
    <vehicles id="E24_to_E28_149" type="standard_car" route="E24_to_E28" depart="497.0" departLane="random" />
    <vehicle id="-E28_to_E27_150" type="standard_car" route="-E28_to_E27" depart="503.0" departLane="random" />
    <vehicles id="-E36_to_E27_151" type="standard_car" route="-E36_to_E27" depart="506.0" departLane="random" />
    <vehicle id="-E27_to_E25_152" type="standard_car" route="-E27_to_E25" depart="513.0" departLane="random" />
    <vehicles id="-E36_to_E27_153" type="standard_car" route="-E36_to_E27" depart="517.0" departLane="random" />
    <vehicles id="-E28_to_E25_154" type="standard_car" route="-E28_to_E25" depart="517.0" departLane="random" />
    <vehicle id="E24_to_E36_155" type="standard_car" route="E24_to_E36" depart="518.0" departLane="random" />
    <vehicle id="-E27_to_E28_156" type="standard_car" route="-E27_to_E28" depart="518.0" departLane="random" />
    <vehicles id="E24_to_E28_157" type="standard_car" route="E24_to_E28" depart="519.0" departLane="random" />
    <vehicle id="-E36_to_E25_158" type="standard_car" route="-E36_to_E25" depart="523.0" departLane="random" />
    <vehicles id="-E28_to_E25_159" type="standard_car" route="-E28_to_E25" depart="525.0" departLane="random" />
    <vehicles id="E24_to_E28_160" type="standard_car" route="E24_to_E28" depart="526.0" departLane="random" />
    <vehicle id="E24_to_E36_161" type="standard_car" route="E24_to_E36" depart="526.0" departLane="random" />
    <vehicle id="-E36_to_E25_162" type="standard_car" route="-E36_to_E25" depart="531.0" departLane="random" />
    <vehicles id="-E28_to_E25_163" type="standard_car" route="-E28_to_E25" depart="532.0" departLane="random" />
    <vehicles id="-E28_to_E25_164" type="standard_car" route="-E28_to_E25" depart="532.0" departLane="random" />
    <vehicles id="-E28_to_E25_165" type="standard_car" route="-E28_to_E25" depart="536.0" departLane="random" />
    <vehicles id="E24_to_E28_166" type="standard_car" route="E24_to_E28" depart="539.0" departLane="random" />
    <vehicle id="-E27_to_E28_167" type="standard_car" route="-E27_to_E28" depart="540.0" departLane="random" />
    <vehicles id="E24_to_E28_168" type="standard_car" route="E24_to_E28" depart="540.0" departLane="random" />
    <vehicles id="-E36_to_E27_169" type="standard_car" route="-E36_to_E27" depart="542.0" departLane="random" />
    <vehicles id="E24_to_E28_170" type="standard_car" route="E24_to_E28" depart="544.0" departLane="random" />
    <vehicle id="-E27_to_E28_171" type="standard_car" route="-E27_to_E28" depart="544.0" departLane="random" />
    <vehicles id="E24_to_E28_172" type="standard_car" route="E24_to_E28" depart="545.0" departLane="random" />
    <vehicles id="-E28_to_E25_173" type="standard_car" route="-E28_to_E25" depart="546.0" departLane="random" />
    <vehicles id="-E27_to_E36_174" type="standard_car" route="-E27_to_E36" depart="546.0" departLane="random" />
    <vehicles id="-E28_to_E25_175" type="standard_car" route="-E28_to_E25" depart="547.0" departLane="random" />
    <vehicles id="E24_to_E28_176" type="standard_car" route="E24_to_E28" depart="551.0" departLane="random" />
    <vehicles id="E24_to_E28_177" type="standard_car" route="E24_to_E28" depart="552.0" departLane="random" />
    <vehicle id="-E27_to_E28_178" type="standard_car" route="-E27_to_E28" depart="554.0" departLane="random" />
    <vehicles id="-E27_to_E36_179" type="standard_car" route="-E27_to_E36" depart="556.0" departLane="random" />
    <vehicle id="-E36_to_E25_180" type="standard_car" route="-E36_to_E25" depart="562.0" departLane="random" />
    <vehicles id="E24_to_E28_181" type="standard_car" route="E24_to_E28" depart="566.0" departLane="random" />
    <vehicle id="-E27_to_E25_182" type="standard_car" route="-E27_to_E25" depart="566.0" departLane="random" />
    <vehicles id="-E28_to_E25_183" type="standard_car" route="-E28_to_E25" depart="566.0" departLane="random" />
    <vehicles id="E24_to_E28_184" type="standard_car" route="E24_to_E28" depart="567.0" departLane="random" />
    <vehicles id="-E36_to_E27_185" type="standard_car" route="-E36_to_E27" depart="569.0" departLane="random" />
    <vehicle id="-E28_to_E27_186" type="standard_car" route="-E28_to_E27" depart="569.0" departLane="random" />
    <vehicles id="E24_to_E28_187" type="standard_car" route="E24_to_E28" depart="571.0" departLane="random" />
    <vehicles id="-E36_to_E27_188" type="standard_car" route="-E36_to_E27" depart="571.0" departLane="random" />
    <vehicles id="E24_to_E28_189" type="standard_car" route="E24_to_E28" depart="571.0" departLane="random" />
    <vehicle id="-E28_to_E27_190" type="standard_car" route="-E28_to_E27" depart="573.0" departLane="random" />
    <vehicles id="-E27_to_E36_191" type="standard_car" route="-E27_to_E36" depart="579.0" departLane="random" />
    <vehicle id="-E27_to_E25_192" type="standard_car" route="-E27_to_E25" depart="581.0" departLane="random" />
    <vehicles id="-E28_to_E25_193" type="standard_car" route="-E28_to_E25" depart="584.0" departLane="random" />
    <vehicle id="-E36_to_E25_194" type="standard_car" route="-E36_to_E25" depart="586.0" departLane="random" />
    <vehicles id="-E27_to_E36_195" type="standard_car" route="-E27_to_E36" depart="587.0" departLane="random" />
    <vehicle id="E24_to_E36_196" type="standard_car" route="E24_to_E36" depart="588.0" departLane="random" />
    <vehicles id="-E28_to_E25_197" type="standard_car" route="-E28_to_E25" depart="589.0" departLane="random" />
    <vehicles id="E24_to_E28_198" type="standard_car" route="E24_to_E28" depart="593.0" departLane="random" />
    <vehicle id="-E36_to_E28_199" type="standard_car" route="-E36_to_E28" depart="595.0" departLane="random" />
    <vehicles id="-E28_to_E25_200" type="standard_car" route="-E28_to_E25" depart="596.0" departLane="random" />
    <vehicles id="-E27_to_E36_201" type="standard_car" route="-E27_to_E36" depart="596.0" departLane="random" />
    <vehicles id="E24_to_E28_202" type="standard_car" route="E24_to_E28" depart="596.0" departLane="random" />
    <vehicles id="-E28_to_E25_203" type="standard_car" route="-E28_to_E25" depart="597.0" departLane="random" />
    <vehicles id="-E36_to_E27_204" type="standard_car" route="-E36_to_E27" depart="602.0" departLane="random" />
    <vehicle id="-E36_to_E25_205" type="standard_car" route="-E36_to_E25" depart="602.0" departLane="random" />
    <vehicles id="-E28_to_E25_206" type="standard_car" route="-E28_to_E25" depart="602.0" departLane="random" />
    <vehicles id="E24_to_E28_207" type="standard_car" route="E24_to_E28" depart="603.0" departLane="random" />
    <vehicle id="E24_to_E36_208" type="standard_car" route="E24_to_E36" depart="604.0" departLane="random" />
    <vehicles id="-E27_to_E36_209" type="standard_car" route="-E27_to_E36" depart="604.0" departLane="random" />
    <vehicles id="-E36_to_E27_210" type="standard_car" route="-E36_to_E27" depart="606.0" departLane="random" />
    <vehicle id="E24_to_E36_211" type="standard_car" route="E24_to_E36" depart="610.0" departLane="random" />
    <vehicles id="-E27_to_E36_212" type="standard_car" route="-E27_to_E36" depart="610.0" departLane="random" />
    <vehicles id="-E27_to_E36_213" type="standard_car" route="-E27_to_E36" depart="610.0" departLane="random" />
    <vehicles id="-E28_to_E25_214" type="standard_car" route="-E28_to_E25" depart="610.0" departLane="random" />
    <vehicles id="-E27_to_E36_215" type="standard_car" route="-E27_to_E36" depart="614.0" departLane="random" />
    <vehicle id="-E27_to_E28_216" type="standard_car" route="-E27_to_E28" depart="615.0" departLane="random" />
    <vehicles id="-E36_to_E27_217" type="standard_car" route="-E36_to_E27" depart="617.0" departLane="random" />
    <vehicles id="-E36_to_E27_218" type="standard_car" route="-E36_to_E27" depart="617.0" departLane="random" />
    <vehicles id="E24_to_E28_219" type="standard_car" route="E24_to_E28" depart="625.0" departLane="random" />
    <vehicle id="-E27_to_E25_220" type="standard_car" route="-E27_to_E25" depart="632.0" departLane="random" />
    <vehicles id="-E27_to_E36_221" type="standard_car" route="-E27_to_E36" depart="632.0" departLane="random" />
    <vehicle id="-E27_to_E28_222" type="standard_car" route="-E27_to_E28" depart="633.0" departLane="random" />
    <vehicle id="-E36_to_E28_223" type="standard_car" route="-E36_to_E28" depart="633.0" departLane="random" />
    <vehicles id="E24_to_E28_224" type="standard_car" route="E24_to_E28" depart="634.0" departLane="random" />
    <vehicles id="-E36_to_E27_225" type="standard_car" route="-E36_to_E27" depart="636.0" departLane="random" />
    <vehicles id="-E28_to_E25_226" type="standard_car" route="-E28_to_E25" depart="637.0" departLane="random" />
    <vehicle id="-E36_to_E28_227" type="standard_car" route="-E36_to_E28" depart="638.0" departLane="random" />
    <vehicles id="-E27_to_E36_228" type="standard_car" route="-E27_to_E36" depart="639.0" departLane="random" />
    <vehicles id="E24_to_E28_229" type="standard_car" route="E24_to_E28" depart="641.0" departLane="random" />
    <vehicles id="E24_to_E28_230" type="standard_car" route="E24_to_E28" depart="642.0" departLane="random" />
    <vehicles id="E24_to_E28_231" type="standard_car" route="E24_to_E28" depart="642.0" departLane="random" />
    <vehicles id="-E28_to_E25_232" type="standard_car" route="-E28_to_E25" depart="643.0" departLane="random" />
    <vehicle id="-E27_to_E25_233" type="standard_car" route="-E27_to_E25" depart="643.0" departLane="random" />
    <vehicle id="-E28_to_E27_234" type="standard_car" route="-E28_to_E27" depart="644.0" departLane="random" />
    <vehicles id="-E27_to_E36_235" type="standard_car" route="-E27_to_E36" depart="644.0" departLane="random" />
    <vehicle id="-E36_to_E25_236" type="standard_car" route="-E36_to_E25" depart="646.0" departLane="random" />
    <vehicles id="-E27_to_E36_237" type="standard_car" route="-E27_to_E36" depart="649.0" departLane="random" />
    <vehicles id="E24_to_E28_238" type="standard_car" route="E24_to_E28" depart="649.0" departLane="random" />
    <vehicles id="-E27_to_E36_239" type="standard_car" route="-E27_to_E36" depart="651.0" departLane="random" />
    <vehicle id="-E27_to_E25_240" type="standard_car" route="-E27_to_E25" depart="653.0" departLane="random" />
    <vehicle id="-E27_to_E25_241" type="standard_car" route="-E27_to_E25" depart="654.0" departLane="random" />
    <vehicle id="-E36_to_E28_242" type="standard_car" route="-E36_to_E28" depart="660.0" departLane="random" />
    <vehicle id="-E36_to_E28_243" type="standard_car" route="-E36_to_E28" depart="660.0" departLane="random" />
    <vehicle id="-E36_to_E28_244" type="standard_car" route="-E36_to_E28" depart="660.0" departLane="random" />
    <vehicles id="-E36_to_E27_245" type="standard_car" route="-E36_to_E27" depart="662.0" departLane="random" />
    <vehicle id="-E36_to_E25_246" type="standard_car" route="-E36_to_E25" depart="663.0" departLane="random" />
    <vehicles id="E24_to_E28_247" type="standard_car" route="E24_to_E28" depart="665.0" departLane="random" />
    <vehicles id="-E28_to_E25_248" type="standard_car" route="-E28_to_E25" depart="666.0" departLane="random" />
    <vehicle id="-E36_to_E25_249" type="standard_car" route="-E36_to_E25" depart="666.0" departLane="random" />
    <vehicles id="-E28_to_E25_250" type="standard_car" route="-E28_to_E25" depart="668.0" departLane="random" />
    <vehicle id="-E27_to_E25_251" type="standard_car" route="-E27_to_E25" depart="668.0" departLane="random" />
    <vehicle id="-E36_to_E28_252" type="standard_car" route="-E36_to_E28" depart="670.0" departLane="random" />
    <vehicles id="-E36_to_E27_253" type="standard_car" route="-E36_to_E27" depart="674.0" departLane="random" />
    <vehicles id="-E27_to_E36_254" type="standard_car" route="-E27_to_E36" depart="674.0" departLane="random" />
    <vehicles id="E24_to_E28_255" type="standard_car" route="E24_to_E28" depart="675.0" departLane="random" />
    <vehicle id="-E28_to_E27_256" type="standard_car" route="-E28_to_E27" depart="675.0" departLane="random" />
    <vehicles id="-E36_to_E27_257" type="standard_car" route="-E36_to_E27" depart="676.0" departLane="random" />
    <vehicles id="-E27_to_E36_258" type="standard_car" route="-E27_to_E36" depart="677.0" departLane="random" />
    <vehicles id="E24_to_E28_259" type="standard_car" route="E24_to_E28" depart="677.0" departLane="random" />
    <vehicles id="-E36_to_E27_260" type="standard_car" route="-E36_to_E27" depart="679.0" departLane="random" />
    <vehicles id="-E28_to_E25_261" type="standard_car" route="-E28_to_E25" depart="680.0" departLane="random" />
    <vehicle id="-E36_to_E25_262" type="standard_car" route="-E36_to_E25" depart="686.0" departLane="random" />