<routes>
    <vType accel="0.8" id="standard_car" decel="4.5" length="5.0" minGap="2.5" maxSpeed="16.67" sigma="0.5" />
    
    <route id="-E28_to_E27" edges="-E28 E27"/>
    <route id="-E28_to_E25" edges="-E28 E25"/>
    <route id="-E28_to_E36" edges="-E28 E36"/>
    <route id="-E27_to_E28" edges="-E27 E28"/>
    <route id="-E27_to_E25" edges="-E27 E25"/>
    <route id="-E27_to_E36" edges="-E27 E36"/>
    <route id="E24_to_E28" edges="E24 E28"/>
    <route id="E24_to_E27" edges="E24 E27"/>
    <route id="E24_to_E36" edges="E24 E36"/>
    <route id="-E36_to_E28" edges="-E36 E28"/>
    <route id="-E36_to_E27" edges="-E36 E27"/>
    <route id="-E36_to_E25" edges="-E36 E25"/>
    <vehicles id="E24_to_E27_0" type="standard_car" route="E24_to_E27" depart="42.0" departLane="random" />
    <vehicles id="-E27_to_E25_1" type="standard_car" route="-E27_to_E25" depart="67.0" departLane="random" />
    <vehicle id="E24_to_E28_2" type="standard_car" route="E24_to_E28" depart="94.0" departLane="random" />
    <vehicles id="E24_to_E27_3" type="standard_car" route="E24_to_E27" depart="112.0" departLane="random" />
    <vehicles id="E24_to_E27_4" type="standard_car" route="E24_to_E27" depart="123.0" departLane="random" />
    <vehicles id="E24_to_E27_5" type="standard_car" route="E24_to_E27" depart="129.0" departLane="random" />
    <vehicle id="-E27_to_E36_6" type="standard_car" route="-E27_to_E36" depart="160.0" departLane="random" />
    <vehicles id="-E27_to_E25_7" type="standard_car" route="-E27_to_E25" depart="193.0" departLane="random" />
    <vehicles id="-E28_to_E25_8" type="standard_car" route="-E28_to_E25" depart="195.0" departLane="random" />
    <vehicles id="-E36_to_E27_9" type="standard_car" route="-E36_to_E27" depart="198.0" departLane="random" />
    <vehicles id="-E28_to_E25_10" type="standard_car" route="-E28_to_E25" depart="199.0" departLane="random" />
    <vehicle id="-E36_to_E28_11" type="standard_car" route="-E36_to_E28" depart="208.0" departLane="random" />
    <vehicles id="-E36_to_E27_12" type="standard_car" route="-E36_to_E27" depart="226.0" departLane="random" />
    <vehicles id="-E28_to_E25_13" type="standard_car" route="-E28_to_E25" depart="231.0" departLane="random" />
    <vehicle id="-E27_to_E28_14" type="standard_car" route="-E27_to_E28" depart="232.0" departLane="random" />
    <vehicles id="E24_to_E27_15" type="standard_car" route="E24_to_E27" depart="235.0" departLane="random" />
    <vehicle id="E24_to_E28_16" type="standard_car" route="E24_to_E28" depart="246.0" departLane="random" />
    <vehicle id="-E28_to_E36_17" type="standard_car" route="-E28_to_E36" depart="248.0" departLane="random" />
    <vehicles id="-E27_to_E25_18" type="standard_car" route="-E27_to_E25" depart="250.0" departLane="random" />
    <vehicles id="E24_to_E27_19" type="standard_car" route="E24_to_E27" depart="251.0" departLane="random" />
    <vehicles id="-E28_to_E25_20" type="standard_car" route="-E28_to_E25" depart="257.0" departLane="random" />
    <vehicles id="E24_to_E27_21" type="standard_car" route="E24_to_E27" depart="257.0" departLane="random" />
    <vehicle id="-E28_to_E27_22" type="standard_car" route="-E28_to_E27" depart="260.0" departLane="random" />
    <vehicles id="-E36_to_E27_23" type="standard_car" route="-E36_to_E27" depart="282.0" departLane="random" />
    <vehicles id="E24_to_E27_24" type="standard_car" route="E24_to_E27" depart="285.0" departLane="random" />
    <vehicles id="-E27_to_E25_25" type="standard_car" route="-E27_to_E25" depart="290.0" departLane="random" />
    <vehicles id="-E27_to_E25_26" type="standard_car" route="-E27_to_E25" depart="309.0" departLane="random" />
    <vehicles id="-E27_to_E25_27" type="standard_car" route="-E27_to_E25" depart="310.0" departLane="random" />
    <vehicle id="E24_to_E36_28" type="standard_car" route="E24_to_E36" depart="314.0" departLane="random" />
    <vehicles id="E24_to_E27_29" type="standard_car" route="E24_to_E27" depart="315.0" departLane="random" />
    <vehicles id="-E36_to_E27_30" type="standard_car" route="-E36_to_E27" depart="324.0" departLane="random" />
    <vehicles id="-E28_to_E25_31" type="standard_car" route="-E28_to_E25" depart="330.0" departLane="random" />
    <vehicles id="-E27_to_E25_32" type="standard_car" route="-E27_to_E25" depart="331.0" departLane="random" />
    <vehicles id="-E36_to_E27_33" type="standard_car" route="-E36_to_E27" depart="342.0" departLane="random" />
    <vehicles id="E24_to_E27_34" type="standard_car" route="E24_to_E27" depart="345.0" departLane="random" />
    <vehicles id="-E28_to_E25_35" type="standard_car" route="-E28_to_E25" depart="357.0" departLane="random" />
    <vehicle id="-E36_to_E28_36" type="standard_car" route="-E36_to_E28" depart="360.0" departLane="random" />
    <vehicles id="-E28_to_E25_37" type="standard_car" route="-E28_to_E25" depart="362.0" departLane="random" />
    <vehicle id="E24_to_E36_38" type="standard_car" route="E24_to_E36" depart="364.0" departLane="random" />
    <vehicles id="-E36_to_E27_39" type="standard_car" route="-E36_to_E27" depart="377.0" departLane="random" />
    <vehicle id="E24_to_E28_40" type="standard_car" route="E24_to_E28" depart="385.0" departLane="random" />
    <vehicle id="-E36_to_E25_41" type="standard_car" route="-E36_to_E25" depart="391.0" departLane="random" />
    <vehicles id="E24_to_E27_42" type="standard_car" route="E24_to_E27" depart="394.0" departLane="random" />
    <vehicle id="-E28_to_E36_43" type="standard_car" route="-E28_to_E36" depart="402.0" departLane="random" />
    <vehicles id="-E27_to_E25_44" type="standard_car" route="-E27_to_E25" depart="405.0" departLane="random" />
    <vehicle id="E24_to_E36_45" type="standard_car" route="E24_to_E36" depart="422.0" departLane="random" />
    <vehicles id="-E28_to_E25_46" type="standard_car" route="-E28_to_E25" depart="425.0" departLane="random" />
    <vehicle id="-E28_to_E27_47" type="standard_car" route="-E28_to_E27" depart="430.0" departLane="random" />
    <vehicles id="-E28_to_E25_48" type="standard_car" route="-E28_to_E25" depart="435.0" departLane="random" />
    <vehicle id="-E27_to_E28_49" type="standard_car" route="-E27_to_E28" depart="436.0" departLane="random" />
    <vehicles id="E24_to_E27_50" type="standard_car" route="E24_to_E27" depart="440.0" departLane="random" />
    <vehicle id="-E36_to_E28_51" type="standard_car" route="-E36_to_E28" depart="441.0" departLane="random" />
    <vehicle id="-E36_to_E28_52" type="standard_car" route="-E36_to_E28" depart="442.0" departLane="random" />
    <vehicles id="-E36_to_E27_53" type="standard_car" route="-E36_to_E27" depart="445.0" departLane="random" />
    <vehicle id="-E36_to_E28_54" type="standard_car" route="-E36_to_E28" depart="448.0" departLane="random" />
    <vehicles id="-E28_to_E25_55" type="standard_car" route="-E28_to_E25" depart="449.0" departLane="random" />
    <vehicle id="-E27_to_E28_56" type="standard_car" route="-E27_to_E28" depart="452.0" departLane="random" />
    <vehicle id="-E28_to_E27_57" type="standard_car" route="-E28_to_E27" depart="458.0" departLane="random" />
    <vehicle id="-E28_to_E27_58" type="standard_car" route="-E28_to_E27" depart="458.0" departLane="random" />
    <vehicles id="E24_to_E27_59" type="standard_car" route="E24_to_E27" depart="460.0" departLane="random" />
    <vehicles id="-E36_to_E27_60" type="standard_car" route="-E36_to_E27" depart="461.0" departLane="random" />
    <vehicle id="-E28_to_E36_61" type="standard_car" route="-E28_to_E36" depart="463.0" departLane="random" />
    <vehicle id="-E36_to_E28_62" type="standard_car" route="-E36_to_E28" depart="463.0" departLane="random" />
    <vehicles id="-E36_to_E27_63" type="standard_car" route="-E36_to_E27" depart="468.0" departLane="random" />
    <vehicles id="-E36_to_E27_64" type="standard_car" route="-E36_to_E27" depart="469.0" departLane="random" />
    <vehicle id="-E28_to_E27_65" type="standard_car" route="-E28_to_E27" depart="471.0" departLane="random" />
    <vehicles id="-E27_to_E25_66" type="standard_car" route="-E27_to_E25" depart="475.0" departLane="random" />
    <vehicles id="-E28_to_E25_67" type="standard_car" route="-E28_to_E25" depart="478.0" departLane="random" />
    <vehicles id="E24_to_E27_68" type="standard_car" route="E24_to_E27" depart="481.0" departLane="random" />
    <vehicle id="-E28_to_E27_69" type="standard_car" route="-E28_to_E27" depart="482.0" departLane="random" />
    <vehicle id="-E27_to_E28_70" type="standard_car" route="-E27_to_E28" depart="482.0" departLane="random" />
    <vehicle id="-E36_to_E28_71" type="standard_car" route="-E36_to_E28" depart="485.0" departLane="random" />
    <vehicles id="-E27_to_E25_72" type="standard_car" route="-E27_to_E25" depart="488.0" departLane="random" />
    <vehicles id="E24_to_E27_73" type="standard_car" route="E24_to_E27" depart="489.0" departLane="random" />
    <vehicles id="-E27_to_E25_74" type="standard_car" route="-E27_to_E25" depart="504.0" departLane="random" />
    <vehicles id="E24_to_E27_75" type="standard_car" route="E24_to_E27" depart="508.0" departLane="random" />
    <vehicles id="-E36_to_E27_76" type="standard_car" route="-E36_to_E27" depart="509.0" departLane="random" />
    <vehicles id="-E36_to_E27_77" type="standard_car" route="-E36_to_E27" depart="518.0" departLane="random" />
    <vehicles id="E24_to_E27_78" type="standard_car" route="E24_to_E27" depart="522.0" departLane="random" />
    <vehicles id="E24_to_E27_79" type="standard_car" route="E24_to_E27" depart="523.0" departLane="random" />
    <vehicles id="-E36_to_E27_80" type="standard_car" route="-E36_to_E27" depart="524.0" departLane="random" />
    <vehicle id="-E28_to_E36_81" type="standard_car" route="-E28_to_E36" depart="531.0" departLane="random" />
    <vehicles id="-E36_to_E27_82" type="standard_car" route="-E36_to_E27" depart="538.0" departLane="random" />
    <vehicles id="-E36_to_E27_83" type="standard_car" route="-E36_to_E27" depart="543.0" departLane="random" />
    <vehicle id="-E36_to_E28_84" type="standard_car" route="-E36_to_E28" depart="551.0" departLane="random" />
    <vehicles id="E24_to_E27_85" type="standard_car" route="E24_to_E27" depart="552.0" departLane="random" />
    <vehicles id="-E27_to_E25_86" type="standard_car" route="-E27_to_E25" depart="556.0" departLane="random" />
    <vehicle id="-E36_to_E28_87" type="standard_car" route="-E36_to_E28" depart="565.0" departLane="random" />
    <vehicle id="-E28_to_E27_88" type="standard_car" route="-E28_to_E27" depart="572.0" departLane="random" />
    <vehicle id="E24_to_E36_89" type="standard_car" route="E24_to_E36" depart="573.0" departLane="random" />
    <vehicles id="-E36_to_E27_90" type="standard_car" route="-E36_to_E27" depart="574.0" departLane="random" />
    <vehicles id="-E28_to_E25_91" type="standard_car" route="-E28_to_E25" depart="575.0" departLane="random" />
    <vehicles id="E24_to_E27_92" type="standard_car" route="E24_to_E27" depart="576.0" departLane="random" />
    <vehicles id="-E28_to_E25_93" type="standard_car" route="-E28_to_E25" depart="576.0" departLane="random" />
    <vehicles id="-E36_to_E27_94" type="standard_car" route="-E36_to_E27" depart="577.0" departLane="random" />
    <vehicles id="-E36_to_E27_95" type="standard_car" route="-E36_to_E27" depart="578.0" departLane="random" />
    <vehicles id="E24_to_E27_96" type="standard_car" route="E24_to_E27" depart="583.0" departLane="random" />
    <vehicles id="-E28_to_E25_97" type="standard_car" route="-E28_to_E25" depart="583.0" departLane="random" />
    <vehicles id="-E27_to_E25_98" type="standard_car" route="-E27_to_E25" depart="584.0" departLane="random" />
    <vehicle id="E24_to_E36_99" type="standard_car" route="E24_to_E36" depart="585.0" departLane="random" />
    <vehicles id="E24_to_E27_100" type="standard_car" route="E24_to_E27" depart="585.0" departLane="random" />
    <vehicles id="-E36_to_E27_101" type="standard_car" route="-E36_to_E27" depart="591.0" departLane="random" />
    <vehicles id="-E27_to_E25_102" type="standard_car" route="-E27_to_E25" depart="592.0" departLane="random" />
    <vehicle id="-E36_to_E25_103" type="standard_car" route="-E36_to_E25" depart="594.0" departLane="random" />
    <vehicles id="E24_to_E27_104" type="standard_car" route="E24_to_E27" depart="598.0" departLane="random" />
    <vehicle id="-E27_to_E36_105" type="standard_car" route="-E27_to_E36" depart="602.0" departLane="random" />
    <vehicle id="-E28_to_E36_106" type="standard_car" route="-E28_to_E36" depart="606.0" departLane="random" />
    <vehicle id="-E27_to_E36_107" type="standard_car" route="-E27_to_E36" depart="606.0" departLane="random" />
    <vehicles id="-E36_to_E27_108" type="standard_car" route="-E36_to_E27" depart="607.0" departLane="random" />
    <vehicles id="-E36_to_E27_109" type="standard_car" route="-E36_to_E27" depart="614.0" departLane="random" />
    <vehicles id="E24_to_E27_110" type="standard_car" route="E24_to_E27" depart="616.0" departLane="random" />
    <vehicle id="-E36_to_E25_111" type="standard_car" route="-E36_to_E25" depart="616.0" departLane="random" />
    <vehicle id="-E28_to_E27_112" type="standard_car" route="-E28_to_E27" depart="619.0" departLane="random" />
    <vehicles id="-E36_to_E27_113" type="standard_car" route="-E36_to_E27" depart="622.0" departLane="random" />
    <vehicles id="E24_to_E27_114" type="standard_car" route="E24_to_E27" depart="631.0" departLane="random" />
    <vehicle id="-E36_to_E25_115" type="standard_car" route="-E36_to_E25" depart="631.0" departLane="random" />
    <vehicle id="-E28_to_E36_116" type="standard_car" route="-E28_to_E36" depart="631.0" departLane="random" />
    <vehicle id="-E27_to_E36_117" type="standard_car" route="-E27_to_E36" depart="632.0" departLane="random" />
    <vehicles id="-E36_to_E27_118" type="standard_car" route="-E36_to_E27" depart="632.0" departLane="random" />
    <vehicle id="E24_to_E36_119" type="standard_car" route="E24_to_E36" depart="636.0" departLane="random" />
    <vehicle id="-E36_to_E25_120" type="standard_car" route="-E36_to_E25" depart="636.0" departLane="random" />
    <vehicle id="E24_to_E36_121" type="standard_car" route="E24_to_E36" depart="636.0" departLane="random" />
    <vehicles id="-E27_to_E25_122" type="standard_car" route="-E27_to_E25" depart="636.0" departLane="random" />
    <vehicle id="-E36_to_E25_123" type="standard_car" route="-E36_to_E25" depart="636.0" departLane="random" />
    <vehicle id="E24_to_E36_124" type="standard_car" route="E24_to_E36" depart="639.0" departLane="random" />
    <vehicle id="-E28_to_E27_125" type="standard_car" route="-E28_to_E27" depart="640.0" departLane="random" />
    <vehicle id="E24_to_E36_126" type="standard_car" route="E24_to_E36" depart="644.0" departLane="random" />
    <vehicle id="-E27_to_E28_127" type="standard_car" route="-E27_to_E28" depart="644.0" departLane="random" />
    <vehicles id="-E28_to_E25_128" type="standard_car" route="-E28_to_E25" depart="654.0" departLane="random" />
    <vehicles id="-E28_to_E25_129" type="standard_car" route="-E28_to_E25" depart="669.0" departLane="random" />
    <vehicles id="E24_to_E27_130" type="standard_car" route="E24_to_E27" depart="669.0" departLane="random" />
    <vehicles id="-E28_to_E25_131" type="standard_car" route="-E28_to_E25" depart="675.0" departLane="random" />
    <vehicles id="E24_to_E27_132" type="standard_car" route="E24_to_E27" depart="675.0" departLane="random" />
    <vehicles id="-E27_to_E25_133" type="standard_car" route="-E27_to_E25" depart="676.0" departLane="random" />
    <vehicle id="E24_to_E36_134" type="standard_car" route="E24_to_E36" depart="677.0" departLane="random" />
    <vehicle id="E24_to_E36_135" type="standard_car" route="E24_to_E36" depart="677.0" departLane="random" />
    <vehicle id="-E36_to_E25_136" type="standard_car" route="-E36_to_E25" depart="679.0" departLane="random" />
    <vehicles id="E24_to_E27_137" type="standard_car" route="E24_to_E27" depart="681.0" departLane="random" />
    <vehicle id="E24_to_E36_138" type="standard_car" route="E24_to_E36" depart="681.0" departLane="random" />
    <vehicle id="-E27_to_E36_139" type="standard_car" route="-E27_to_E36" depart="687.0" departLane="random" />
    <vehicles id="-E36_to_E27_140" type="standard_car" route="-E36_to_E27" depart="691.0" departLane="random" />
    <vehicle id="-E28_to_E27_141" type="standard_car" route="-E28_to_E27" depart="694.0" departLane="random" />
    <vehicles id="E24_to_E27_142" type="standard_car" route="E24_to_E27" depart="697.0" departLane="random" />
    <vehicle id="-E27_to_E36_143" type="standard_car" route="-E27_to_E36" depart="700.0" departLane="random" />
    <vehicles id="-E28_to_E25_144" type="standard_car" route="-E28_to_E25" depart="700.0" departLane="random" />
    <vehicle id="-E28_to_E36_145" type="standard_car" route="-E28_to_E36" depart="703.0" departLane="random" />
    <vehicles id="-E36_to_E27_146" type="standard_car" route="-E36_to_E27" depart="708.0" departLane="random" />
    <vehicles id="E24_to_E27_147" type="standard_car" route="E24_to_E27" depart="712.0" departLane="random" />
    <vehicle id="-E27_to_E28_148" type="standard_car" route="-E27_to_E28" depart="718.0" departLane="random" />
    <vehicles id="-E27_to_E25_149" type="standard_car" route="-E27_to_E25" depart="720.0" departLane="random" />
    <vehicles id="E24_to_E27_150" type="standard_car" route="E24_to_E27" depart="720.0" departLane="random" />
    <vehicles id="-E36_to_E27_151" type="standard_car" route="-E36_to_E27" depart="720.0" departLane="random" />
    <vehicles id="-E36_to_E27_152" type="standard_car" route="-E36_to_E27" depart="721.0" departLane="random" />
    <vehicles id="E24_to_E27_153" type="standard_car" route="E24_to_E27" depart="724.0" departLane="random" />
    <vehicles id="-E28_to_E25_154" type="standard_car" route="-E28_to_E25" depart="728.0" departLane="random" />
    <vehicles id="-E27_to_E25_155" type="standard_car" route="-E27_to_E25" depart="732.0" departLane="random" />
    <vehicles id="-E36_to_E27_156" type="standard_car" route="-E36_to_E27" depart="734.0" departLane="random" />
    <vehicles id="-E28_to_E25_157" type="standard_car" route="-E28_to_E25" depart="742.0" departLane="random" />
    <vehicles id="-E28_to_E25_158" type="standard_car" route="-E28_to_E25" depart="749.0" departLane="random" />
    <vehicles id="-E28_to_E25_159" type="standard_car" route="-E28_to_E25" depart="749.0" departLane="random" />
    <vehicles id="-E28_to_E25_160" type="standard_car" route="-E28_to_E25" depart="750.0" departLane="random" />
    <vehicle id="-E36_to_E28_161" type="standard_car" route="-E36_to_E28" depart="751.0" departLane="random" />
    <vehicles id="-E28_to_E25_162" type="standard_car" route="-E28_to_E25" depart="752.0" departLane="random" />
    <vehicles id="-E28_to_E25_163" type="standard_car" route="-E28_to_E25" depart="753.0" departLane="random" />
    <vehicles id="-E36_to_E27_164" type="standard_car" route="-E36_to_E27" depart="753.0" departLane="random" />
    <vehicles id="E24_to_E27_165" type="standard_car" route="E24_to_E27" depart="755.0" departLane="random" />
    <vehicles id="-E36_to_E27_166" type="standard_car" route="-E36_to_E27" depart="757.0" departLane="random" />
    <vehicle id="-E28_to_E36_167" type="standard_car" route="-E28_to_E36" depart="758.0" departLane="random" />
    <vehicles id="E24_to_E27_168" type="standard_car" route="E24_to_E27" depart="758.0" departLane="random" />
    <vehicle id="-E28_to_E36_169" type="standard_car" route="-E28_to_E36" depart="759.0" departLane="random" />
    <vehicles id="-E27_to_E25_170" type="standard_car" route="-E27_to_E25" depart="764.0" departLane="random" />
    <vehicle id="-E28_to_E27_171" type="standard_car" route="-E28_to_E27" depart="767.0" departLane="random" />
    <vehicle id="E24_to_E28_172" type="standard_car" route="E24_to_E28" depart="775.0" departLane="random" />
    <vehicles id="-E27_to_E25_173" type="standard_car" route="-E27_to_E25" depart="781.0" departLane="random" />
    <vehicle id="-E28_to_E27_174" type="standard_car" route="-E28_to_E27" depart="782.0" departLane="random" />
    <vehicles id="-E36_to_E27_175" type="standard_car" route="-E36_to_E27" depart="784.0" departLane="random" />
    <vehicle id="-E28_to_E36_176" type="standard_car" route="-E28_to_E36" depart="789.0" departLane="random" />
    <vehicle id="E24_to_E28_177" type="standard_car" route="E24_to_E28" depart="789.0" departLane="random" />
    <vehicles id="-E36_to_E27_178" type="standard_car" route="-E36_to_E27" depart="790.0" departLane="random" />
    <vehicles id="-E28_to_E25_179" type="standard_car" route="-E28_to_E25" depart="793.0" departLane="random" />
    <vehicles id="-E36_to_E27_180" type="standard_car" route="-E36_to_E27" depart="794.0" departLane="random" />
    <vehicle id="-E36_to_E28_181" type="standard_car" route="-E36_to_E28" depart="798.0" departLane="random" />
    <vehicles id="-E27_to_E25_182" type="standard_car" route="-E27_to_E25" depart="801.0" departLane="random" />
    <vehicles id="-E36_to_E27_183" type="standard_car" route="-E36_to_E27" depart="801.0" departLane="random" />
    <vehicle id="E24_to_E36_184" type="standard_car" route="E24_to_E36" depart="805.0" departLane="random" />
    <vehicles id="-E36_to_E27_185" type="standard_car" route="-E36_to_E27" depart="809.0" departLane="random" />
    <vehicles id="E24_to_E27_186" type="standard_car" route="E24_to_E27" depart="810.0" departLane="random" />
    <vehicles id="E24_to_E27_187" type="standard_car" route="E24_to_E27" depart="810.0" departLane="random" />
    <vehicles id="-E36_to_E27_188" type="standard_car" route="-E36_to_E27" depart="815.0" departLane="random" />
    <vehicles id="-E28_to_E25_189" type="standard_car" route="-E28_to_E25" depart="815.0" departLane="random" />
    <vehicle id="-E36_to_E28_190" type="standard_car" route="-E36_to_E28" depart="816.0" departLane="random" />
    <vehicle id="E24_to_E28_191" type="standard_car" route="E24_to_E28" depart="817.0" departLane="random" />
    <vehicles id="-E27_to_E25_192" type="standard_car" route="-E27_to_E25" depart="819.0" departLane="random" />
    <vehicles id="-E27_to_E25_193" type="standard_car" route="-E27_to_E25" depart="826.0" departLane="random" />
    <vehicle id="E24_to_E28_194" type="standard_car" route="E24_to_E28" depart="828.0" departLane="random" />
    <vehicles id="-E28_to_E25_195" type="standard_car" route="-E28_to_E25" depart="842.0" departLane="random" />
    <vehicles id="-E27_to_E25_196" type="standard_car" route="-E27_to_E25" depart="843.0" departLane="random" />
    <vehicles id="-E27_to_E25_197" type="standard_car" route="-E27_to_E25" depart="844.0" departLane="random" />
    <vehicles id="E24_to_E27_198" type="standard_car" route="E24_to_E27" depart="849.0" departLane="random" />
    <vehicle id="-E36_to_E25_199" type="standard_car" route="-E36_to_E25" depart="850.0" departLane="random" />
    <vehicle id="-E27_to_E36_200" type="standard_car" route="-E27_to_E36" depart="862.0" departLane="random" />
    <vehicle id="E24_to_E36_201" type="standard_car" route="E24_to_E36" depart="868.0" departLane="random" />
    <vehicle id="E24_to_E28_202" type="standard_car" route="E24_to_E28" depart="870.0" departLane="random" />
    <vehicles id="E24_to_E27_203" type="standard_car" route="E24_to_E27" depart="871.0" departLane="random" />
    <vehicle id="-E27_to_E28_204" type="standard_car" route="-E27_to_E28" depart="873.0" departLane="random" />
    <vehicle id="E24_to_E28_205" type="standard_car" route="E24_to_E28" depart="874.0" departLane="random" />
    <vehicle id="-E27_to_E36_206" type="standard_car" route="-E27_to_E36" depart="875.0" departLane="random" />
    <vehicles id="E24_to_E27_207" type="standard_car" route="E24_to_E27" depart="877.0" departLane="random" />
    <vehicles id="-E36_to_E27_208" type="standard_car" route="-E36_to_E27" depart="880.0" departLane="random" />
    <vehicles id="E24_to_E27_209" type="standard_car" route="E24_to_E27" depart="882.0" departLane="random" />
    <vehicle id="-E36_to_E28_210" type="standard_car" route="-E36_to_E28" depart="883.0" departLane="random" />
    <vehicle id="-E28_to_E36_211" type="standard_car" route="-E28_to_E36" depart="887.0" departLane="random" />
    <vehicle id="E24_to_E36_212" type="standard_car" route="E24_to_E36" depart="887.0" departLane="random" />
    <vehicles id="-E36_to_E27_213" type="standard_car" route="-E36_to_E27" depart="889.0" departLane="random" />
    <vehicles id="-E27_to_E25_214" type="standard_car" route="-E27_to_E25" depart="890.0" departLane="random" />
    <vehicle id="E24_to_E36_215" type="standard_car" route="E24_to_E36" depart="890.0" departLane="random" />
    <vehicle id="-E36_to_E25_216" type="standard_car" route="-E36_to_E25" depart="892.0" departLane="random" />
    <vehicles id="-E27_to_E25_217" type="standard_car" route="-E27_to_E25" depart="897.0" departLane="random" />
    <vehicles id="-E36_to_E27_218" type="standard_car" route="-E36_to_E27" depart="900.0" departLane="random" />
    <vehicles id="-E27_to_E25_219" type="standard_car" route="-E27_to_E25" depart="900.0" departLane="random" />
    <vehicles id="E24_to_E27_220" type="standard_car" route="E24_to_E27" depart="904.0" departLane="random" />
    <vehicles id="-E36_to_E27_221" type="standard_car" route="-E36_to_E27" depart="904.0" departLane="random" />
    <vehicles id="-E36_to_E27_222" type="standard_car" route="-E36_to_E27" depart="906.0" departLane="random" />
    <vehicles id="-E28_to_E25_223" type="standard_car" route="-E28_to_E25" depart="907.0" departLane="random" />
    <vehicle id="E24_to_E36_224" type="standard_car" route="E24_to_E36" depart="914.0" departLane="random" />
    <vehicles id="-E27_to_E25_225" type="standard_car" route="-E27_to_E25" depart="914.0" departLane="random" />
    <vehicles id="-E36_to_E27_226" type="standard_car" route="-E36_to_E27" depart="915.0" departLane="random" />
    <vehicles id="-E36_to_E27_227" type="standard_car" route="-E36_to_E27" depart="917.0" departLane="random" />
    <vehicle id="-E36_to_E25_228" type="standard_car" route="-E36_to_E25" depart="919.0" departLane="random" />
    <vehicles id="E24_to_E27_229" type="standard_car" route="E24_to_E27" depart="924.0" departLane="random" />
    <vehicle id="-E27_to_E36_230" type="standard_car" route="-E27_to_E36" depart="925.0" departLane="random" />
    <vehicles id="E24_to_E27_231" type="standard_car" route="E24_to_E27" depart="926.0" departLane="random" />
    <vehicles id="E24_to_E27_232" type="standard_car" route="E24_to_E27" depart="926.0" departLane="random" />
    <vehicles id="-E36_to_E27_233" type="standard_car" route="-E36_to_E27" depart="928.0" departLane="random" />
    <vehicles id="-E28_to_E25_234" type="standard_car" route="-E28_to_E25" depart="938.0" departLane="random" />
    <vehicle id="E24_to_E36_235" type="standard_car" route="E24_to_E36" depart="938.0" departLane="random" />
    <vehicles id="-E27_to_E25_236" type="standard_car" route="-E27_to_E25" depart="938.0" departLane="random" />
    <vehicles id="-E28_to_E25_237" type="standard_car" route="-E28_to_E25" depart="939.0" departLane="random" />
    <vehicles id="-E28_to_E25_238" type="standard_car" route="-E28_to_E25" depart="943.0" departLane="random" />
    <vehicles id="-E27_to_E25_239" type="standard_car" route="-E27_to_E25" depart="945.0" departLane="random" />
    <vehicle id="-E27_to_E28_240" type="standard_car" route="-E27_to_E28" depart="946.0" departLane="random" />
    <vehicle id="-E36_to_E28_241" type="standard_car" route="-E36_to_E28" depart="946.0" departLane="random" />
    <vehicles id="E24_to_E27_242" type="standard_car" route="E24_to_E27" depart="947.0" departLane="random" />
    <vehicle id="-E36_to_E28_243" type="standard_car" route="-E36_to_E28" depart="948.0" departLane="random" />
    <vehicle id="-E36_to_E25_244" type="standard_car" route="-E36_to_E25" depart="953.0" departLane="random" />
    <vehicle id="-E36_to_E28_245" type="standard_car" route="-E36_to_E28" depart="954.0" departLane="random" />
    <vehicle id="-E28_to_E36_246" type="standard_car" route="-E28_to_E36" depart="955.0" departLane="random" />
    <vehicle id="-E27_to_E28_247" type="standard_car" route="-E27_to_E28" depart="957.0" departLane="random" />
    <vehicle id="E24_to_E28_248" type="standard_car" route="E24_to_E28" depart="958.0" departLane="random" />
    <vehicle id="-E28_to_E36_249" type="standard_car" route="-E28_to_E36" depart="960.0" departLane="random" />
    <vehicle id="E24_to_E28_250" type="standard_car" route="E24_to_E28" depart="960.0" departLane="random" />
    <vehicles id="-E36_to_E27_251" type="standard_car" route="-E36_to_E27" depart="962.0" departLane="random" />
    <vehicles id="-E28_to_E25_252" type="standard_car" route="-E28_to_E25" depart="963.0" departLane="random" />
    <vehicles id="-E28_to_E25_253" type="standard_car" route="-E28_to_E25" depart="964.0" departLane="random" />
    <vehicles id="-E36_to_E27_254" type="standard_car" route="-E36_to_E27" depart="966.0" departLane="random" />
    <vehicles id="-E27_to_E25_255" type="standard_car" route="-E27_to_E25" depart="970.0" departLane="random" />
    <vehicles id="-E28_to_E25_256" type="standard_car" route="-E28_to_E25" depart="973.0" departLane="random" />
    <vehicle id="-E28_to_E36_257" type="standard_car" route="-E28_to_E36" depart="973.0" departLane="random" />
    <vehicles id="-E28_to_E25_258" type="standard_car" route="-E28_to_E25" depart="974.0" departLane="random" />
    <vehicle id="E24_to_E28_259" type="standard_car" route="E24_to_E28" depart="974.0" departLane="random" />
    <vehicles id="-E27_to_E25_260" type="standard_car" route="-E27_to_E25" depart="975.0" departLane="random" />
    <vehicle id="-E36_to_E25_261" type="standard_car" route="-E36_to_E25" depart="981.0" departLane="random" />